10096043
  -OEChem-02182015162D

 65 68  0     0  0  0  0  0  0999 V2000
   10.5747    1.0221    0.0000 O   0  0  0  0  0  0  0  0  0  0  0  0
    2.9230    0.2508    0.0000 O   0  0  0  0  0  0  0  0  0  0  0  0
    3.7320   -4.3370    0.0000 O   0  0  0  0  0  0  0  0  0  0  0  0
    2.0000   -1.3370    0.0000 O   0  0  0  0  0  0  0  0  0  0  0  0
    5.8144    1.9064    0.0000 O   0  0  0  0  0  0  0  0  0  0  0  0
    9.0884   -0.3161    0.0000 N   0  0  0  0  0  0  0  0  0  0  0  0
    3.2320    1.2019    0.0000 N   0  0  0  0  0  0  0  0  0  0  0  0
    4.4131    2.9244    0.0000 N   0  0  0  0  0  0  0  0  0  0  0  0
    8.8805    0.6620    0.0000 C   0  0  0  0  0  0  0  0  0  0  0  0
   10.0395   -0.6252    0.0000 C   0  0  0  0  0  0  0  0  0  0  0  0
    8.3453   -0.9853    0.0000 C   0  0  0  0  0  0  0  0  0  0  0  0
    9.6237    1.3311    0.0000 C   0  0  0  0  0  0  0  0  0  0  0  0
   10.7826    0.0440    0.0000 C   0  0  0  0  0  0  0  0  0  0  0  0
    7.3942   -0.6762    0.0000 C   0  0  0  0  0  0  0  0  0  0  0  0
    4.5411    0.2508    0.0000 C   0  0  0  0  0  0  0  0  0  0  0  0
    5.4921   -0.0582    0.0000 C   0  0  0  0  0  0  0  0  0  0  0  0
    7.1863    0.3019    0.0000 C   0  0  0  0  0  0  0  0  0  0  0  0
    6.6511   -1.3454    0.0000 C   0  0  0  0  0  0  0  0  0  0  0  0
    3.7320   -0.3370    0.0000 C   0  0  0  0  0  0  0  0  0  0  0  0
    5.4641   -3.3370    0.0000 C   0  0  0  0  0  0  0  0  0  0  0  0
    3.7320   -1.3370    0.0000 C   0  0  0  0  0  0  0  0  0  0  0  0
    4.5981   -2.8370    0.0000 C   0  0  0  0  0  0  0  0  0  0  0  0
    6.2353    0.6109    0.0000 C   0  0  0  0  0  0  0  0  0  0  0  0
    5.7000   -1.0364    0.0000 C   0  0  0  0  0  0  0  0  0  0  0  0
    4.2320    1.2019    0.0000 C   0  0  0  0  0  0  0  0  0  0  0  0
    4.5981   -1.8370    0.0000 C   0  0  0  0  0  0  0  0  0  0  0  0
    3.7320   -3.3370    0.0000 C   0  0  0  0  0  0  0  0  0  0  0  0
    2.8660   -1.8370    0.0000 C   0  0  0  0  0  0  0  0  0  0  0  0
    5.4641   -4.3370    0.0000 C   0  0  0  0  0  0  0  0  0  0  0  0
    6.3301   -2.8370    0.0000 C   0  0  0  0  0  0  0  0  0  0  0  0
    2.8660   -2.8370    0.0000 C   0  0  0  0  0  0  0  0  0  0  0  0
    4.8198    2.0109    0.0000 C   0  0  0  0  0  0  0  0  0  0  0  0
    5.0009    3.7334    0.0000 C   0  0  0  0  0  0  0  0  0  0  0  0
    4.5942    4.6470    0.0000 C   0  0  0  0  0  0  0  0  0  0  0  0
    8.5520    1.1878    0.0000 H   0  0  0  0  0  0  0  0  0  0  0  0
    8.3057    0.4298    0.0000 H   0  0  0  0  0  0  0  0  0  0  0  0
    9.7484   -1.1726    0.0000 H   0  0  0  0  0  0  0  0  0  0  0  0
   10.5281   -1.0069    0.0000 H   0  0  0  0  0  0  0  0  0  0  0  0
    8.0542   -1.5327    0.0000 H   0  0  0  0  0  0  0  0  0  0  0  0
    8.8339   -1.3670    0.0000 H   0  0  0  0  0  0  0  0  0  0  0  0
    9.9147    1.8786    0.0000 H   0  0  0  0  0  0  0  0  0  0  0  0
    9.1351    1.7128    0.0000 H   0  0  0  0  0  0  0  0  0  0  0  0
   11.1112   -0.4818    0.0000 H   0  0  0  0  0  0  0  0  0  0  0  0
   11.3575    0.2762    0.0000 H   0  0  0  0  0  0  0  0  0  0  0  0
    7.6471    0.7168    0.0000 H   0  0  0  0  0  0  0  0  0  0  0  0
    6.7800   -1.9518    0.0000 H   0  0  0  0  0  0  0  0  0  0  0  0
    5.4641   -2.7170    0.0000 H   0  0  0  0  0  0  0  0  0  0  0  0
    6.1064    1.2174    0.0000 H   0  0  0  0  0  0  0  0  0  0  0  0
    5.2393   -1.4512    0.0000 H   0  0  0  0  0  0  0  0  0  0  0  0
    5.1350   -1.5270    0.0000 H   0  0  0  0  0  0  0  0  0  0  0  0
    2.8676    1.7034    0.0000 H   0  0  0  0  0  0  0  0  0  0  0  0
    4.8441   -4.3370    0.0000 H   0  0  0  0  0  0  0  0  0  0  0  0
    5.4641   -4.9570    0.0000 H   0  0  0  0  0  0  0  0  0  0  0  0
    6.0841   -4.3370    0.0000 H   0  0  0  0  0  0  0  0  0  0  0  0
    6.6401   -3.3739    0.0000 H   0  0  0  0  0  0  0  0  0  0  0  0
    6.8671   -2.5270    0.0000 H   0  0  0  0  0  0  0  0  0  0  0  0
    6.0201   -2.3000    0.0000 H   0  0  0  0  0  0  0  0  0  0  0  0
    2.3291   -3.1470    0.0000 H   0  0  0  0  0  0  0  0  0  0  0  0
    3.7965    2.9892    0.0000 H   0  0  0  0  0  0  0  0  0  0  0  0
    3.1951   -4.6470    0.0000 H   0  0  0  0  0  0  0  0  0  0  0  0
    5.4316    3.2874    0.0000 H   0  0  0  0  0  0  0  0  0  0  0  0
    5.5149    4.0801    0.0000 H   0  0  0  0  0  0  0  0  0  0  0  0
    5.1606    4.8992    0.0000 H   0  0  0  0  0  0  0  0  0  0  0  0
    4.3420    5.2134    0.0000 H   0  0  0  0  0  0  0  0  0  0  0  0
    4.0278    4.3948    0.0000 H   0  0  0  0  0  0  0  0  0  0  0  0
  1 12  1  0  0  0  0
  1 13  1  0  0  0  0
  2  7  1  0  0  0  0
  2 19  1  0  0  0  0
  3 27  1  0  0  0  0
  3 60  1  0  0  0  0
  4 28  2  0  0  0  0
  5 32  2  0  0  0  0
  6  9  1  0  0  0  0
  6 10  1  0  0  0  0
  6 11  1  0  0  0  0
  7 25  1  0  0  0  0
  7 51  1  0  0  0  0
  8 32  1  0  0  0  0
  8 33  1  0  0  0  0
  8 59  1  0  0  0  0
  9 12  1  0  0  0  0
  9 35  1  0  0  0  0
  9 36  1  0  0  0  0
 10 13  1  0  0  0  0
 10 37  1  0  0  0  0
 10 38  1  0  0  0  0
 11 14  1  0  0  0  0
 11 39  1  0  0  0  0
 11 40  1  0  0  0  0
 12 41  1  0  0  0  0
 12 42  1  0  0  0  0
 13 43  1  0  0  0  0
 13 44  1  0  0  0  0
 14 17  2  0  0  0  0
 14 18  1  0  0  0  0
 15 16  1  0  0  0  0
 15 19  1  0  0  0  0
 15 25  2  0  0  0  0
 16 23  2  0  0  0  0
 16 24  1  0  0  0  0
 17 23  1  0  0  0  0
 17 45  1  0  0  0  0
 18 24  2  0  0  0  0
 18 46  1  0  0  0  0
 19 21  2  0  0  0  0
 20 22  1  0  0  0  0
 20 29  1  0  0  0  0
 20 30  1  0  0  0  0
 20 47  1  0  0  0  0
 21 26  1  0  0  0  0
 21 28  1  0  0  0  0
 22 26  2  0  0  0  0
 22 27  1  0  0  0  0
 23 48  1  0  0  0  0
 24 49  1  0  0  0  0
 25 32  1  0  0  0  0
 26 50  1  0  0  0  0
 27 31  2  0  0  0  0
 28 31  1  0  0  0  0
 29 52  1  0  0  0  0
 29 53  1  0  0  0  0
 29 54  1  0  0  0  0
 30 55  1  0  0  0  0
 30 56  1  0  0  0  0
 30 57  1  0  0  0  0
 31 58  1  0  0  0  0
 33 34  1  0  0  0  0
 33 61  1  0  0  0  0
 33 62  1  0  0  0  0
 34 63  1  0  0  0  0
 34 64  1  0  0  0  0
 34 65  1  0  0  0  0
M  END
> <PUBCHEM_COMPOUND_CID>
10096043

> <PUBCHEM_COMPOUND_CANONICALIZED>
1

> <PUBCHEM_CACTVS_COMPLEXITY>
932

> <PUBCHEM_CACTVS_HBOND_ACCEPTOR>
7

> <PUBCHEM_CACTVS_HBOND_DONOR>
3

> <PUBCHEM_CACTVS_ROTATABLE_BOND>
6

> <PUBCHEM_CACTVS_SUBSKEYS>
AAADceB7OAAAAAAAAAAAAAAAAAAAAQAAAAA8QIAAAAAAAAABAAAAHgAUCAAADQzhmAYyAIPQBgCIAqVSUACCAAAgIAAoiIGIBMgKZCKAkRGXcAhk1gGYmQeQwOAOQAAAAAAAAACAAAAAAAAAAAAAAAAAAA==

> <PUBCHEM_IUPAC_OPENEYE_NAME>
(5Z)-N-ethyl-5-(4-hydroxy-3-isopropyl-6-oxo-cyclohexa-2,4-dien-1-ylidene)-4-[4-(morpholinomethyl)phenyl]-2H-isoxazole-3-carboxamide

> <PUBCHEM_IUPAC_CAS_NAME>
(5Z)-N-ethyl-5-(4-hydroxy-6-oxo-3-propan-2-yl-1-cyclohexa-2,4-dienylidene)-4-[4-(4-morpholinylmethyl)phenyl]-2H-isoxazole-3-carboxamide

> <PUBCHEM_IUPAC_NAME_MARKUP>
(5<I>Z</I>)-<I>N</I>-ethyl-5-(4-hydroxy-6-oxo-3-propan-2-ylcyclohexa-2,4-dien-1-ylidene)-4-[4-(morpholin-4-ylmethyl)phenyl]-2<I>H</I>-1,2-oxazole-3-carboxamide

> <PUBCHEM_IUPAC_NAME>
(5Z)-N-ethyl-5-(4-hydroxy-6-oxo-3-propan-2-ylcyclohexa-2,4-dien-1-ylidene)-4-[4-(morpholin-4-ylmethyl)phenyl]-2H-1,2-oxazole-3-carboxamide

> <PUBCHEM_IUPAC_SYSTEMATIC_NAME>
(5Z)-N-ethyl-4-[4-(morpholin-4-ylmethyl)phenyl]-5-(4-oxidanyl-6-oxidanylidene-3-propan-2-yl-cyclohexa-2,4-dien-1-ylidene)-2H-1,2-oxazole-3-carboxamide

> <PUBCHEM_IUPAC_TRADITIONAL_NAME>
(5Z)-N-ethyl-5-(4-hydroxy-3-isopropyl-6-keto-cyclohexa-2,4-dien-1-ylidene)-4-[4-(morpholinomethyl)phenyl]-3-isoxazoline-3-carboxamide

> <PUBCHEM_IUPAC_INCHI>
InChI=1S/C26H31N3O5/c1-4-27-26(32)24-23(18-7-5-17(6-8-18)15-29-9-11-33-12-10-29)25(34-28-24)20-13-19(16(2)3)21(30)14-22(20)31/h5-8,13-14,16,28,30H,4,9-12,15H2,1-3H3,(H,27,32)/b25-20-

> <PUBCHEM_IUPAC_INCHIKEY>
SWDZPNJZKUGIIH-QQTULTPQSA-N

> <PUBCHEM_XLOGP3_AA>
2.3

> <PUBCHEM_EXACT_MASS>
465.226371

> <PUBCHEM_MOLECULAR_FORMULA>
C26H31N3O5

> <PUBCHEM_MOLECULAR_WEIGHT>
465.5

> <PUBCHEM_OPENEYE_CAN_SMILES>
CCNC(=O)C1=C(C(=C2C=C(C(=CC2=O)O)C(C)C)ON1)C3=CC=C(C=C3)CN4CCOCC4

> <PUBCHEM_OPENEYE_ISO_SMILES>
CCNC(=O)C1=C(/C(=C/2\C=C(C(=CC2=O)O)C(C)C)/ON1)C3=CC=C(C=C3)CN4CCOCC4

> <PUBCHEM_CACTVS_TPSA>
100

> <PUBCHEM_MONOISOTOPIC_WEIGHT>
465.226371

> <PUBCHEM_TOTAL_CHARGE>
0

> <PUBCHEM_HEAVY_ATOM_COUNT>
34

> <PUBCHEM_ATOM_DEF_STEREO_COUNT>
0

> <PUBCHEM_ATOM_UDEF_STEREO_COUNT>
0

> <PUBCHEM_BOND_DEF_STEREO_COUNT>
1

> <PUBCHEM_BOND_UDEF_STEREO_COUNT>
0

> <PUBCHEM_ISOTOPIC_ATOM_COUNT>
0

> <PUBCHEM_COMPONENT_COUNT>
1

> <PUBCHEM_CACTVS_TAUTO_COUNT>
-1

> <PUBCHEM_COORDINATE_TYPE>
1
5
255

> <PUBCHEM_BONDANNOTATIONS>
14  17  8
14  18  8
16  23  8
16  24  8
17  23  8
18  24  8

$$$$
17755052
  -OEChem-02182015162D

 62 67  0     0  0  0  0  0  0999 V2000
   10.8600    3.2990    0.0000 S   0  0  0  0  0  0  0  0  0  0  0  0
    7.2764   -0.9698    0.0000 S   0  0  0  0  0  0  0  0  0  0  0  0
   11.7260    2.7990    0.0000 O   0  0  0  0  0  0  0  0  0  0  0  0
    9.9939    3.7990    0.0000 O   0  0  0  0  0  0  0  0  0  0  0  0
    5.4641   -4.1651    0.0000 O   0  0  0  0  0  0  0  0  0  0  0  0
    9.3600    0.7010    0.0000 N   0  0  0  0  0  0  0  0  0  0  0  0
   10.3600    2.4330    0.0000 N   0  0  0  0  0  0  0  0  0  0  0  0
    5.4641   -2.1651    0.0000 N   0  0  0  0  0  0  0  0  0  0  0  0
    4.5981   -0.6651    0.0000 N   0  0  0  0  0  0  0  0  0  0  0  0
    5.4641    0.8349    0.0000 N   0  0  0  0  0  0  0  0  0  0  0  0
    3.0752    3.3068    0.0000 N   0  0  0  0  0  0  0  0  0  0  0  0
    4.0640    3.4098    0.0000 N   0  0  0  0  0  0  0  0  0  0  0  0
    8.8600    1.5670    0.0000 C   0  0  0  0  0  0  0  0  0  0  0  0
   10.3600    0.7010    0.0000 C   0  0  0  0  0  0  0  0  0  0  0  0
    9.3600    2.4330    0.0000 C   0  0  0  0  0  0  0  0  0  0  0  0
   10.8600    1.5670    0.0000 C   0  0  0  0  0  0  0  0  0  0  0  0
    8.8600   -0.1651    0.0000 C   0  0  0  0  0  0  0  0  0  0  0  0
    7.8600   -0.1651    0.0000 C   0  0  0  0  0  0  0  0  0  0  0  0
    6.3301   -0.6651    0.0000 C   0  0  0  0  0  0  0  0  0  0  0  0
    5.4641   -1.1651    0.0000 C   0  0  0  0  0  0  0  0  0  0  0  0
    7.2764    0.6397    0.0000 C   0  0  0  0  0  0  0  0  0  0  0  0
    6.3301    0.3349    0.0000 C   0  0  0  0  0  0  0  0  0  0  0  0
   11.3600    4.1651    0.0000 C   0  0  0  0  0  0  0  0  0  0  0  0
    4.5981   -2.6651    0.0000 C   0  0  0  0  0  0  0  0  0  0  0  0
    6.3301   -2.6651    0.0000 C   0  0  0  0  0  0  0  0  0  0  0  0
    4.5981   -3.6651    0.0000 C   0  0  0  0  0  0  0  0  0  0  0  0
    6.3301   -3.6651    0.0000 C   0  0  0  0  0  0  0  0  0  0  0  0
    4.5981    0.3349    0.0000 C   0  0  0  0  0  0  0  0  0  0  0  0
    3.7320    0.8349    0.0000 C   0  0  0  0  0  0  0  0  0  0  0  0
    3.7320    1.8349    0.0000 C   0  0  0  0  0  0  0  0  0  0  0  0
    2.8660    0.3349    0.0000 C   0  0  0  0  0  0  0  0  0  0  0  0
    2.8660    2.3349    0.0000 C   0  0  0  0  0  0  0  0  0  0  0  0
    4.4691    2.5020    0.0000 C   0  0  0  0  0  0  0  0  0  0  0  0
    2.0000    0.8349    0.0000 C   0  0  0  0  0  0  0  0  0  0  0  0
    2.0000    1.8349    0.0000 C   0  0  0  0  0  0  0  0  0  0  0  0
    8.3850    1.9655    0.0000 H   0  0  0  0  0  0  0  0  0  0  0  0
    8.3850    1.1685    0.0000 H   0  0  0  0  0  0  0  0  0  0  0  0
   10.2523    0.0904    0.0000 H   0  0  0  0  0  0  0  0  0  0  0  0
   10.9426    0.4889    0.0000 H   0  0  0  0  0  0  0  0  0  0  0  0
    9.4676    3.0436    0.0000 H   0  0  0  0  0  0  0  0  0  0  0  0
    8.7774    2.6451    0.0000 H   0  0  0  0  0  0  0  0  0  0  0  0
   11.3349    1.1685    0.0000 H   0  0  0  0  0  0  0  0  0  0  0  0
   11.3349    1.9655    0.0000 H   0  0  0  0  0  0  0  0  0  0  0  0
    8.7523   -0.7756    0.0000 H   0  0  0  0  0  0  0  0  0  0  0  0
    9.4426   -0.3771    0.0000 H   0  0  0  0  0  0  0  0  0  0  0  0
    7.4690    1.2290    0.0000 H   0  0  0  0  0  0  0  0  0  0  0  0
   11.8969    3.8551    0.0000 H   0  0  0  0  0  0  0  0  0  0  0  0
   11.6700    4.7020    0.0000 H   0  0  0  0  0  0  0  0  0  0  0  0
   10.8230    4.4751    0.0000 H   0  0  0  0  0  0  0  0  0  0  0  0
    4.3860   -2.0824    0.0000 H   0  0  0  0  0  0  0  0  0  0  0  0
    3.9875   -2.7727    0.0000 H   0  0  0  0  0  0  0  0  0  0  0  0
    6.9407   -2.7727    0.0000 H   0  0  0  0  0  0  0  0  0  0  0  0
    6.5422   -2.0824    0.0000 H   0  0  0  0  0  0  0  0  0  0  0  0
    3.9875   -3.5574    0.0000 H   0  0  0  0  0  0  0  0  0  0  0  0
    4.3860   -4.2477    0.0000 H   0  0  0  0  0  0  0  0  0  0  0  0
    6.5422   -4.2477    0.0000 H   0  0  0  0  0  0  0  0  0  0  0  0
    6.9407   -3.5574    0.0000 H   0  0  0  0  0  0  0  0  0  0  0  0
    2.8660   -0.2851    0.0000 H   0  0  0  0  0  0  0  0  0  0  0  0
    5.0757    2.3742    0.0000 H   0  0  0  0  0  0  0  0  0  0  0  0
    1.4631    0.5249    0.0000 H   0  0  0  0  0  0  0  0  0  0  0  0
    1.4631    2.1449    0.0000 H   0  0  0  0  0  0  0  0  0  0  0  0
    2.6612    3.7682    0.0000 H   0  0  0  0  0  0  0  0  0  0  0  0
  1  3  2  0  0  0  0
  1  4  2  0  0  0  0
  1  7  1  0  0  0  0
  1 23  1  0  0  0  0
  2 18  1  0  0  0  0
  2 19  1  0  0  0  0
  5 26  1  0  0  0  0
  5 27  1  0  0  0  0
  6 13  1  0  0  0  0
  6 14  1  0  0  0  0
  6 17  1  0  0  0  0
  7 15  1  0  0  0  0
  7 16  1  0  0  0  0
  8 20  1  0  0  0  0
  8 24  1  0  0  0  0
  8 25  1  0  0  0  0
  9 20  2  0  0  0  0
  9 28  1  0  0  0  0
 10 22  1  0  0  0  0
 10 28  2  0  0  0  0
 11 12  1  0  0  0  0
 11 32  1  0  0  0  0
 11 62  1  0  0  0  0
 12 33  2  0  0  0  0
 13 15  1  0  0  0  0
 13 36  1  0  0  0  0
 13 37  1  0  0  0  0
 14 16  1  0  0  0  0
 14 38  1  0  0  0  0
 14 39  1  0  0  0  0
 15 40  1  0  0  0  0
 15 41  1  0  0  0  0
 16 42  1  0  0  0  0
 16 43  1  0  0  0  0
 17 18  1  0  0  0  0
 17 44  1  0  0  0  0
 17 45  1  0  0  0  0
 18 21  2  0  0  0  0
 19 20  1  0  0  0  0
 19 22  2  0  0  0  0
 21 22  1  0  0  0  0
 21 46  1  0  0  0  0
 23 47  1  0  0  0  0
 23 48  1  0  0  0  0
 23 49  1  0  0  0  0
 24 26  1  0  0  0  0
 24 50  1  0  0  0  0
 24 51  1  0  0  0  0
 25 27  1  0  0  0  0
 25 52  1  0  0  0  0
 25 53  1  0  0  0  0
 26 54  1  0  0  0  0
 26 55  1  0  0  0  0
 27 56  1  0  0  0  0
 27 57  1  0  0  0  0
 28 29  1  0  0  0  0
 29 30  2  0  0  0  0
 29 31  1  0  0  0  0
 30 32  1  0  0  0  0
 30 33  1  0  0  0  0
 31 34  2  0  0  0  0
 31 58  1  0  0  0  0
 32 35  2  0  0  0  0
 33 59  1  0  0  0  0
 34 35  1  0  0  0  0
 34 60  1  0  0  0  0
 35 61  1  0  0  0  0
M  END
> <PUBCHEM_COMPOUND_CID>
17755052

> <PUBCHEM_COMPOUND_CANONICALIZED>
1

> <PUBCHEM_CACTVS_COMPLEXITY>
832

> <PUBCHEM_CACTVS_HBOND_ACCEPTOR>
10

> <PUBCHEM_CACTVS_HBOND_DONOR>
1

> <PUBCHEM_CACTVS_ROTATABLE_BOND>
5

> <PUBCHEM_CACTVS_SUBSKEYS>
AAADceB7sABgAAAAAAAAAAAAAAAAAWJAAAA8WLEAAAAAAFgB/gAAHgQYQAAADAjh3wa/8fdrFAqmAzZnZHCTpKkhirBZuTw4ZJiKaKLg2dGXpAxomAL4yCcQgIAOgAAAQAASAAAAAACAACQAAAAAAAAAAA==

> <PUBCHEM_IUPAC_OPENEYE_NAME>
4-[2-(1H-indazol-4-yl)-6-[(4-methylsulfonylpiperazin-1-yl)methyl]thieno[3,2-d]pyrimidin-4-yl]morpholine

> <PUBCHEM_IUPAC_CAS_NAME>
4-[2-(1H-indazol-4-yl)-6-[(4-methylsulfonyl-1-piperazinyl)methyl]-4-thieno[3,2-d]pyrimidinyl]morpholine

> <PUBCHEM_IUPAC_NAME_MARKUP>
4-[2-(1<I>H</I>-indazol-4-yl)-6-[(4-methylsulfonylpiperazin-1-yl)methyl]thieno[3,2-d]pyrimidin-4-yl]morpholine

> <PUBCHEM_IUPAC_NAME>
4-[2-(1H-indazol-4-yl)-6-[(4-methylsulfonylpiperazin-1-yl)methyl]thieno[3,2-d]pyrimidin-4-yl]morpholine

> <PUBCHEM_IUPAC_SYSTEMATIC_NAME>
4-[2-(1H-indazol-4-yl)-6-[(4-methylsulfonylpiperazin-1-yl)methyl]thieno[3,2-d]pyrimidin-4-yl]morpholine

> <PUBCHEM_IUPAC_TRADITIONAL_NAME>
4-[2-(1H-indazol-4-yl)-6-[(4-mesylpiperazino)methyl]thieno[3,2-d]pyrimidin-4-yl]morpholine

> <PUBCHEM_IUPAC_INCHI>
InChI=1S/C23H27N7O3S2/c1-35(31,32)30-7-5-28(6-8-30)15-16-13-20-21(34-16)23(29-9-11-33-12-10-29)26-22(25-20)17-3-2-4-19-18(17)14-24-27-19/h2-4,13-14H,5-12,15H2,1H3,(H,24,27)

> <PUBCHEM_IUPAC_INCHIKEY>
LHNIIDJUOCFXAP-UHFFFAOYSA-N

> <PUBCHEM_XLOGP3_AA>
1.6

> <PUBCHEM_EXACT_MASS>
513.16168

> <PUBCHEM_MOLECULAR_FORMULA>
C23H27N7O3S2

> <PUBCHEM_MOLECULAR_WEIGHT>
513.6

> <PUBCHEM_OPENEYE_CAN_SMILES>
CS(=O)(=O)N1CCN(CC1)CC2=CC3=C(S2)C(=NC(=N3)C4=C5C=NNC5=CC=C4)N6CCOCC6

> <PUBCHEM_OPENEYE_ISO_SMILES>
CS(=O)(=O)N1CCN(CC1)CC2=CC3=C(S2)C(=NC(=N3)C4=C5C=NNC5=CC=C4)N6CCOCC6

> <PUBCHEM_CACTVS_TPSA>
144

> <PUBCHEM_MONOISOTOPIC_WEIGHT>
513.16168

> <PUBCHEM_TOTAL_CHARGE>
0

> <PUBCHEM_HEAVY_ATOM_COUNT>
35

> <PUBCHEM_ATOM_DEF_STEREO_COUNT>
0

> <PUBCHEM_ATOM_UDEF_STEREO_COUNT>
0

> <PUBCHEM_BOND_DEF_STEREO_COUNT>
0

> <PUBCHEM_BOND_UDEF_STEREO_COUNT>
0

> <PUBCHEM_ISOTOPIC_ATOM_COUNT>
0

> <PUBCHEM_COMPONENT_COUNT>
1

> <PUBCHEM_CACTVS_TAUTO_COUNT>
-1

> <PUBCHEM_COORDINATE_TYPE>
1
5
255

> <PUBCHEM_BONDANNOTATIONS>
10  22  8
10  28  8
11  12  8
11  32  8
12  33  8
18  21  8
19  20  8
19  22  8
2  18  8
2  19  8
21  22  8
29  30  8
29  31  8
30  32  8
30  33  8
31  34  8
32  35  8
34  35  8
9  20  8
9  28  8

$$$$
60838
  -OEChem-02182015162D

 81 87  0     1  0  0  0  0  0999 V2000
    4.4663   -1.4561    0.0000 O   0  0  0  0  0  0  0  0  0  0  0  0
    6.6205    7.7376    0.0000 O   0  0  0  0  0  0  0  0  0  0  0  0
    6.0452   -2.1680    0.0000 O   0  0  0  0  0  0  0  0  0  0  0  0
    8.5145    6.1636    0.0000 O   0  0  0  0  0  0  0  0  0  0  0  0
    4.0065    6.1683    0.0000 O   0  0  0  0  0  0  0  0  0  0  0  0
    8.3905    7.7134    0.0000 O   0  0  0  0  0  0  0  0  0  0  0  0
    3.4060   -5.9143    0.0000 N   0  0  0  0  0  0  0  0  0  0  0  0
    4.6392   -3.1795    0.0000 N   0  0  0  0  0  0  0  0  0  0  0  0
    4.8725    4.6683    0.0000 N   0  0  0  0  0  0  0  0  0  0  0  0
    6.1501    2.3677    0.0000 N   0  0  0  0  0  0  0  0  0  0  0  0
    3.8171   -5.0027    0.0000 C   0  0  0  0  0  0  0  0  0  0  0  0
    3.2331   -4.1909    0.0000 C   0  0  0  0  0  0  0  0  0  0  0  0
    4.8121   -4.9029    0.0000 C   0  0  0  0  0  0  0  0  0  0  0  0
    2.4110   -6.0142    0.0000 C   0  0  0  0  0  0  0  0  0  0  0  0
    3.9900   -6.7261    0.0000 C   0  0  0  0  0  0  0  0  0  0  0  0
    3.6442   -3.2793    0.0000 C   0  0  0  0  0  0  0  0  0  0  0  0
    5.2231   -3.9913    0.0000 C   0  0  0  0  0  0  0  0  0  0  0  0
    2.0000   -6.9258    0.0000 C   0  0  0  0  0  0  0  0  0  0  0  0
    3.5790   -7.6377    0.0000 C   0  0  0  0  0  0  0  0  0  0  0  0
    2.5840   -7.7376    0.0000 C   0  0  0  0  0  0  0  0  0  0  0  0
    5.0502   -2.2679    0.0000 C   0  0  0  0  0  0  0  0  0  0  0  0
    5.7385    4.1683    0.0000 C   0  0  0  0  0  0  0  0  0  0  0  0
    4.5406    3.0934    0.0000 C   0  0  0  0  0  0  0  0  0  0  0  0
    4.1355    4.0012    0.0000 C   0  0  0  0  0  0  0  0  0  0  0  0
    6.6046    5.6683    0.0000 C   0  0  0  0  0  0  0  0  0  0  0  0
    7.5146    6.1751    0.0000 C   0  0  2  0  0  0  0  0  0  0  0  0
    5.5293    3.1965    0.0000 C   0  0  0  0  0  0  0  0  0  0  0  0
    5.7385    6.1683    0.0000 C   0  0  0  0  0  0  0  0  0  0  0  0
    4.1041    2.1545    0.0000 C   0  0  0  0  0  0  0  0  0  0  0  0
    6.6046    4.6683    0.0000 C   0  0  0  0  0  0  0  0  0  0  0  0
    4.8725    5.6683    0.0000 C   0  0  0  0  0  0  0  0  0  0  0  0
    4.7055    1.3116    0.0000 C   0  0  0  0  0  0  0  0  0  0  0  0
    8.0045    5.3034    0.0000 C   0  0  0  0  0  0  0  0  0  0  0  0
    5.7225    7.2098    0.0000 C   0  0  0  0  0  0  0  0  0  0  0  0
    5.7354    1.4189    0.0000 C   0  0  0  0  0  0  0  0  0  0  0  0
    7.5226    7.2167    0.0000 C   0  0  0  0  0  0  0  0  0  0  0  0
    3.1084    2.0623    0.0000 C   0  0  0  0  0  0  0  0  0  0  0  0
    4.8773   -0.5445    0.0000 C   0  0  0  0  0  0  0  0  0  0  0  0
    4.2508    0.3335    0.0000 C   0  0  0  0  0  0  0  0  0  0  0  0
    6.3820    0.5556    0.0000 C   0  0  0  0  0  0  0  0  0  0  0  0
    5.9501   -0.4327    0.0000 C   0  0  0  0  0  0  0  0  0  0  0  0
    7.4945    4.4432    0.0000 C   0  0  0  0  0  0  0  0  0  0  0  0
    2.6903    1.1539    0.0000 C   0  0  0  0  0  0  0  0  0  0  0  0
    3.2002   -5.0646    0.0000 H   0  0  0  0  0  0  0  0  0  0  0  0
    2.7208   -3.8418    0.0000 H   0  0  0  0  0  0  0  0  0  0  0  0
    2.8003   -4.6349    0.0000 H   0  0  0  0  0  0  0  0  0  0  0  0
    4.7659   -5.5212    0.0000 H   0  0  0  0  0  0  0  0  0  0  0  0
    5.4130   -5.0557    0.0000 H   0  0  0  0  0  0  0  0  0  0  0  0
    2.4572   -5.3959    0.0000 H   0  0  0  0  0  0  0  0  0  0  0  0
    1.8102   -5.8613    0.0000 H   0  0  0  0  0  0  0  0  0  0  0  0
    4.5024   -7.0752    0.0000 H   0  0  0  0  0  0  0  0  0  0  0  0
    4.4228   -6.2822    0.0000 H   0  0  0  0  0  0  0  0  0  0  0  0
    3.6903   -2.6610    0.0000 H   0  0  0  0  0  0  0  0  0  0  0  0
    3.0433   -3.1265    0.0000 H   0  0  0  0  0  0  0  0  0  0  0  0
    5.7355   -4.3404    0.0000 H   0  0  0  0  0  0  0  0  0  0  0  0
    5.6559   -3.5473    0.0000 H   0  0  0  0  0  0  0  0  0  0  0  0
    1.4876   -6.5766    0.0000 H   0  0  0  0  0  0  0  0  0  0  0  0
    1.5672   -7.3697    0.0000 H   0  0  0  0  0  0  0  0  0  0  0  0
    3.5328   -8.2560    0.0000 H   0  0  0  0  0  0  0  0  0  0  0  0
    4.1798   -7.7906    0.0000 H   0  0  0  0  0  0  0  0  0  0  0  0
    2.0254   -8.0067    0.0000 H   0  0  0  0  0  0  0  0  0  0  0  0
    2.7520   -8.3343    0.0000 H   0  0  0  0  0  0  0  0  0  0  0  0
    3.7700    4.5021    0.0000 H   0  0  0  0  0  0  0  0  0  0  0  0
    3.5990    3.6904    0.0000 H   0  0  0  0  0  0  0  0  0  0  0  0
    7.1415    4.3583    0.0000 H   0  0  0  0  0  0  0  0  0  0  0  0
    8.4748    4.8994    0.0000 H   0  0  0  0  0  0  0  0  0  0  0  0
    8.4840    5.6964    0.0000 H   0  0  0  0  0  0  0  0  0  0  0  0
    5.5044    7.7902    0.0000 H   0  0  0  0  0  0  0  0  0  0  0  0
    5.1133    7.0943    0.0000 H   0  0  0  0  0  0  0  0  0  0  0  0
    3.1593    2.6802    0.0000 H   0  0  0  0  0  0  0  0  0  0  0  0
    2.5087    2.2198    0.0000 H   0  0  0  0  0  0  0  0  0  0  0  0
    3.6335    0.2764    0.0000 H   0  0  0  0  0  0  0  0  0  0  0  0
    6.9979    0.6271    0.0000 H   0  0  0  0  0  0  0  0  0  0  0  0
    6.3160   -0.9332    0.0000 H   0  0  0  0  0  0  0  0  0  0  0  0
    6.9612    4.7594    0.0000 H   0  0  0  0  0  0  0  0  0  0  0  0
    7.1783    3.9099    0.0000 H   0  0  0  0  0  0  0  0  0  0  0  0
    8.0279    4.1270    0.0000 H   0  0  0  0  0  0  0  0  0  0  0  0
    8.8183    5.6231    0.0000 H   0  0  0  0  0  0  0  0  0  0  0  0
    2.1271    1.4131    0.0000 H   0  0  0  0  0  0  0  0  0  0  0  0
    2.4311    0.5907    0.0000 H   0  0  0  0  0  0  0  0  0  0  0  0
    3.2535    0.8947    0.0000 H   0  0  0  0  0  0  0  0  0  0  0  0
  1 21  1  0  0  0  0
  1 38  1  0  0  0  0
  2 34  1  0  0  0  0
  2 36  1  0  0  0  0
  3 21  2  0  0  0  0
 26  4  1  1  0  0  0
  4 78  1  0  0  0  0
  5 31  2  0  0  0  0
  6 36  2  0  0  0  0
  7 11  1  0  0  0  0
  7 14  1  0  0  0  0
  7 15  1  0  0  0  0
  8 16  1  0  0  0  0
  8 17  1  0  0  0  0
  8 21  1  0  0  0  0
  9 22  1  0  0  0  0
  9 24  1  0  0  0  0
  9 31  1  0  0  0  0
 10 27  2  0  0  0  0
 10 35  1  0  0  0  0
 11 12  1  0  0  0  0
 11 13  1  0  0  0  0
 11 44  1  0  0  0  0
 12 16  1  0  0  0  0
 12 45  1  0  0  0  0
 12 46  1  0  0  0  0
 13 17  1  0  0  0  0
 13 47  1  0  0  0  0
 13 48  1  0  0  0  0
 14 18  1  0  0  0  0
 14 49  1  0  0  0  0
 14 50  1  0  0  0  0
 15 19  1  0  0  0  0
 15 51  1  0  0  0  0
 15 52  1  0  0  0  0
 16 53  1  0  0  0  0
 16 54  1  0  0  0  0
 17 55  1  0  0  0  0
 17 56  1  0  0  0  0
 18 20  1  0  0  0  0
 18 57  1  0  0  0  0
 18 58  1  0  0  0  0
 19 20  1  0  0  0  0
 19 59  1  0  0  0  0
 19 60  1  0  0  0  0
 20 61  1  0  0  0  0
 20 62  1  0  0  0  0
 22 27  1  0  0  0  0
 22 30  2  0  0  0  0
 23 24  1  0  0  0  0
 23 27  1  0  0  0  0
 23 29  2  0  0  0  0
 24 63  1  0  0  0  0
 24 64  1  0  0  0  0
 25 26  1  0  0  0  0
 25 28  2  0  0  0  0
 25 30  1  0  0  0  0
 26 33  1  0  0  0  0
 26 36  1  0  0  0  0
 28 31  1  0  0  0  0
 28 34  1  0  0  0  0
 29 32  1  0  0  0  0
 29 37  1  0  0  0  0
 30 65  1  0  0  0  0
 32 35  2  0  0  0  0
 32 39  1  0  0  0  0
 33 42  1  0  0  0  0
 33 66  1  0  0  0  0
 33 67  1  0  0  0  0
 34 68  1  0  0  0  0
 34 69  1  0  0  0  0
 35 40  1  0  0  0  0
 37 43  1  0  0  0  0
 37 70  1  0  0  0  0
 37 71  1  0  0  0  0
 38 39  2  0  0  0  0
 38 41  1  0  0  0  0
 39 72  1  0  0  0  0
 40 41  2  0  0  0  0
 40 73  1  0  0  0  0
 41 74  1  0  0  0  0
 42 75  1  0  0  0  0
 42 76  1  0  0  0  0
 42 77  1  0  0  0  0
 43 79  1  0  0  0  0
 43 80  1  0  0  0  0
 43 81  1  0  0  0  0
M  END
> <PUBCHEM_COMPOUND_CID>
60838

> <PUBCHEM_COMPOUND_CANONICALIZED>
1

> <PUBCHEM_CACTVS_COMPLEXITY>
1200

> <PUBCHEM_CACTVS_HBOND_ACCEPTOR>
8

> <PUBCHEM_CACTVS_HBOND_DONOR>
1

> <PUBCHEM_CACTVS_ROTATABLE_BOND>
5

> <PUBCHEM_CACTVS_SUBSKEYS>
AAADcfB/uAAAAAAAAAAAAAAAAAAAAWAAAAA8WLECAAAAAFix8AAAHgAACAAADGzhngYyzvMIFgCoAyXyXAKCiCAhIiAImCF+bNgNZvbE8Zuecihm5hHL+QewwPAOgEABAAACAAAAgAIAAAQAAAAAAAAAAA==

> <PUBCHEM_IUPAC_OPENEYE_NAME>
[(19S)-10,19-diethyl-19-hydroxy-14,18-dioxo-17-oxa-3,13-diazapentacyclo[11.8.0.02,11.04,9.015,20]henicosa-1(21),2,4(9),5,7,10,15(20)-heptaen-7-yl] 4-(1-piperidyl)piperidine-1-carboxylate

> <PUBCHEM_IUPAC_CAS_NAME>
4-(1-piperidinyl)-1-piperidinecarboxylic acid [(19S)-10,19-diethyl-19-hydroxy-14,18-dioxo-17-oxa-3,13-diazapentacyclo[11.8.0.02,11.04,9.015,20]heneicosa-1(21),2,4(9),5,7,10,15(20)-heptaen-7-yl] ester

> <PUBCHEM_IUPAC_NAME_MARKUP>
[(19<I>S</I>)-10,19-diethyl-19-hydroxy-14,18-dioxo-17-oxa-3,13-diazapentacyclo[11.8.0.0<SUP>2,11</SUP>.0<SUP>4,9</SUP>.0<SUP>15,20</SUP>]henicosa-1(21),2,4(9),5,7,10,15(20)-heptaen-7-yl] 4-piperidin-1-ylpiperidine-1-carboxylate

> <PUBCHEM_IUPAC_NAME>
[(19S)-10,19-diethyl-19-hydroxy-14,18-dioxo-17-oxa-3,13-diazapentacyclo[11.8.0.02,11.04,9.015,20]henicosa-1(21),2,4(9),5,7,10,15(20)-heptaen-7-yl] 4-piperidin-1-ylpiperidine-1-carboxylate

> <PUBCHEM_IUPAC_SYSTEMATIC_NAME>
[(19S)-10,19-diethyl-19-oxidanyl-14,18-bis(oxidanylidene)-17-oxa-3,13-diazapentacyclo[11.8.0.02,11.04,9.015,20]henicosa-1(21),2,4(9),5,7,10,15(20)-heptaen-7-yl] 4-piperidin-1-ylpiperidine-1-carboxylate

> <PUBCHEM_IUPAC_TRADITIONAL_NAME>
4-piperidinopiperidine-1-carboxylic acid [(19S)-10,19-diethyl-19-hydroxy-14,18-diketo-17-oxa-3,13-diazapentacyclo[11.8.0.02,11.04,9.015,20]heneicosa-1(21),2,4(9),5,7,10,15(20)-heptaen-7-yl] ester

> <PUBCHEM_IUPAC_INCHI>
InChI=1S/C33H38N4O6/c1-3-22-23-16-21(43-32(40)36-14-10-20(11-15-36)35-12-6-5-7-13-35)8-9-27(23)34-29-24(22)18-37-28(29)17-26-25(30(37)38)19-42-31(39)33(26,41)4-2/h8-9,16-17,20,41H,3-7,10-15,18-19H2,1-2H3/t33-/m0/s1

> <PUBCHEM_IUPAC_INCHIKEY>
UWKQSNNFCGGAFS-XIFFEERXSA-N

> <PUBCHEM_XLOGP3_AA>
3

> <PUBCHEM_EXACT_MASS>
586.279135

> <PUBCHEM_MOLECULAR_FORMULA>
C33H38N4O6

> <PUBCHEM_MOLECULAR_WEIGHT>
586.7

> <PUBCHEM_OPENEYE_CAN_SMILES>
CCC1=C2CN3C(=CC4=C(C3=O)COC(=O)C4(CC)O)C2=NC5=C1C=C(C=C5)OC(=O)N6CCC(CC6)N7CCCCC7

> <PUBCHEM_OPENEYE_ISO_SMILES>
CCC1=C2CN3C(=CC4=C(C3=O)COC(=O)[C@@]4(CC)O)C2=NC5=C1C=C(C=C5)OC(=O)N6CCC(CC6)N7CCCCC7

> <PUBCHEM_CACTVS_TPSA>
113

> <PUBCHEM_MONOISOTOPIC_WEIGHT>
586.279135

> <PUBCHEM_TOTAL_CHARGE>
0

> <PUBCHEM_HEAVY_ATOM_COUNT>
43

> <PUBCHEM_ATOM_DEF_STEREO_COUNT>
1

> <PUBCHEM_ATOM_UDEF_STEREO_COUNT>
0

> <PUBCHEM_BOND_DEF_STEREO_COUNT>
0

> <PUBCHEM_BOND_UDEF_STEREO_COUNT>
0

> <PUBCHEM_ISOTOPIC_ATOM_COUNT>
0

> <PUBCHEM_COMPONENT_COUNT>
1

> <PUBCHEM_CACTVS_TAUTO_COUNT>
-1

> <PUBCHEM_COORDINATE_TYPE>
1
5
255

> <PUBCHEM_BONDANNOTATIONS>
10  27  8
10  35  8
22  30  8
23  27  8
23  29  8
25  28  8
25  30  8
28  31  8
29  32  8
32  35  8
32  39  8
35  40  8
38  39  8
38  41  8
26  4  5
40  41  8
9  22  8
9  31  8

$$$$
11488320
  -OEChem-02182015162D

 58 61  0     0  0  0  0  0  0999 V2000
   13.2399   -3.5272    0.0000 Cl  0  0  0  0  0  0  0  0  0  0  0  0
   11.5195   -2.5072    0.0000 F   0  0  0  0  0  0  0  0  0  0  0  0
    8.0622    0.5272    0.0000 O   0  0  0  0  0  0  0  0  0  0  0  0
    3.7320    1.0272    0.0000 O   0  0  0  0  0  0  0  0  0  0  0  0
    8.0622    2.5272    0.0000 O   0  0  0  0  0  0  0  0  0  0  0  0
    5.4641    2.0272    0.0000 N   0  0  0  0  0  0  0  0  0  0  0  0
    2.8660    2.5272    0.0000 N   0  0  0  0  0  0  0  0  0  0  0  0
   11.5542    2.5619    0.0000 N   0  0  0  0  0  0  0  0  0  0  0  0
   11.5426   -0.5074    0.0000 N   0  0  0  0  0  0  0  0  0  0  0  0
   12.4603    1.0064    0.0000 N   0  0  0  0  0  0  0  0  0  0  0  0
    7.1962    1.0272    0.0000 C   0  0  0  0  0  0  0  0  0  0  0  0
    6.3301    0.5272    0.0000 C   0  0  0  0  0  0  0  0  0  0  0  0
    7.1962    2.0272    0.0000 C   0  0  0  0  0  0  0  0  0  0  0  0
    5.4641    1.0272    0.0000 C   0  0  0  0  0  0  0  0  0  0  0  0
    6.3301    2.5272    0.0000 C   0  0  0  0  0  0  0  0  0  0  0  0
    4.5981    2.5272    0.0000 C   0  0  0  0  0  0  0  0  0  0  0  0
    8.9282    1.0272    0.0000 C   0  0  0  0  0  0  0  0  0  0  0  0
    3.7320    2.0272    0.0000 C   0  0  0  0  0  0  0  0  0  0  0  0
    9.7942    0.5272    0.0000 C   0  0  0  0  0  0  0  0  0  0  0  0
    8.9282    2.0272    0.0000 C   0  0  0  0  0  0  0  0  0  0  0  0
   10.6603    1.0272    0.0000 C   0  0  0  0  0  0  0  0  0  0  0  0
    9.7942    2.5272    0.0000 C   0  0  0  0  0  0  0  0  0  0  0  0
   10.6603    2.0272    0.0000 C   0  0  0  0  0  0  0  0  0  0  0  0
   11.5542    0.4926    0.0000 C   0  0  0  0  0  0  0  0  0  0  0  0
    2.0000    2.0272    0.0000 C   0  0  0  0  0  0  0  0  0  0  0  0
   12.4603    2.0480    0.0000 C   0  0  0  0  0  0  0  0  0  0  0  0
    8.0622    3.5272    0.0000 C   0  0  0  0  0  0  0  0  0  0  0  0
   12.4028   -1.0174    0.0000 C   0  0  0  0  0  0  0  0  0  0  0  0
   12.3913   -2.0173    0.0000 C   0  0  0  0  0  0  0  0  0  0  0  0
   13.2746   -0.5274    0.0000 C   0  0  0  0  0  0  0  0  0  0  0  0
   13.2514   -2.5273    0.0000 C   0  0  0  0  0  0  0  0  0  0  0  0
   14.1348   -1.0374    0.0000 C   0  0  0  0  0  0  0  0  0  0  0  0
   14.1232   -2.0373    0.0000 C   0  0  0  0  0  0  0  0  0  0  0  0
    7.7331    1.3372    0.0000 H   0  0  0  0  0  0  0  0  0  0  0  0
    5.9316    0.0523    0.0000 H   0  0  0  0  0  0  0  0  0  0  0  0
    6.7287    0.0523    0.0000 H   0  0  0  0  0  0  0  0  0  0  0  0
    7.8067    1.9196    0.0000 H   0  0  0  0  0  0  0  0  0  0  0  0
    7.4082    2.6098    0.0000 H   0  0  0  0  0  0  0  0  0  0  0  0
    4.8535    1.1349    0.0000 H   0  0  0  0  0  0  0  0  0  0  0  0
    5.2520    0.4446    0.0000 H   0  0  0  0  0  0  0  0  0  0  0  0
    6.7287    3.0022    0.0000 H   0  0  0  0  0  0  0  0  0  0  0  0
    5.9316    3.0022    0.0000 H   0  0  0  0  0  0  0  0  0  0  0  0
    4.9966    3.0022    0.0000 H   0  0  0  0  0  0  0  0  0  0  0  0
    4.1996    3.0022    0.0000 H   0  0  0  0  0  0  0  0  0  0  0  0
    9.7942   -0.0928    0.0000 H   0  0  0  0  0  0  0  0  0  0  0  0
    2.8660    3.1472    0.0000 H   0  0  0  0  0  0  0  0  0  0  0  0
    9.7942    3.1472    0.0000 H   0  0  0  0  0  0  0  0  0  0  0  0
    1.6900    2.5642    0.0000 H   0  0  0  0  0  0  0  0  0  0  0  0
    1.4631    1.7172    0.0000 H   0  0  0  0  0  0  0  0  0  0  0  0
    2.3100    1.4903    0.0000 H   0  0  0  0  0  0  0  0  0  0  0  0
   11.0021   -0.8112    0.0000 H   0  0  0  0  0  0  0  0  0  0  0  0
   12.9960    2.3601    0.0000 H   0  0  0  0  0  0  0  0  0  0  0  0
    8.6822    3.5272    0.0000 H   0  0  0  0  0  0  0  0  0  0  0  0
    8.0622    4.1472    0.0000 H   0  0  0  0  0  0  0  0  0  0  0  0
    7.4422    3.5272    0.0000 H   0  0  0  0  0  0  0  0  0  0  0  0
   13.2817    0.0925    0.0000 H   0  0  0  0  0  0  0  0  0  0  0  0
   14.6752   -0.7336    0.0000 H   0  0  0  0  0  0  0  0  0  0  0  0
   14.6565   -2.3535    0.0000 H   0  0  0  0  0  0  0  0  0  0  0  0
  1 31  1  0  0  0  0
  2 29  1  0  0  0  0
  3 11  1  0  0  0  0
  3 17  1  0  0  0  0
  4 18  2  0  0  0  0
  5 20  1  0  0  0  0
  5 27  1  0  0  0  0
  6 14  1  0  0  0  0
  6 15  1  0  0  0  0
  6 16  1  0  0  0  0
  7 18  1  0  0  0  0
  7 25  1  0  0  0  0
  7 46  1  0  0  0  0
  8 23  1  0  0  0  0
  8 26  2  0  0  0  0
  9 24  1  0  0  0  0
  9 28  1  0  0  0  0
  9 51  1  0  0  0  0
 10 24  2  0  0  0  0
 10 26  1  0  0  0  0
 11 12  1  0  0  0  0
 11 13  1  0  0  0  0
 11 34  1  0  0  0  0
 12 14  1  0  0  0  0
 12 35  1  0  0  0  0
 12 36  1  0  0  0  0
 13 15  1  0  0  0  0
 13 37  1  0  0  0  0
 13 38  1  0  0  0  0
 14 39  1  0  0  0  0
 14 40  1  0  0  0  0
 15 41  1  0  0  0  0
 15 42  1  0  0  0  0
 16 18  1  0  0  0  0
 16 43  1  0  0  0  0
 16 44  1  0  0  0  0
 17 19  1  0  0  0  0
 17 20  2  0  0  0  0
 19 21  2  0  0  0  0
 19 45  1  0  0  0  0
 20 22  1  0  0  0  0
 21 23  1  0  0  0  0
 21 24  1  0  0  0  0
 22 23  2  0  0  0  0
 22 47  1  0  0  0  0
 25 48  1  0  0  0  0
 25 49  1  0  0  0  0
 25 50  1  0  0  0  0
 26 52  1  0  0  0  0
 27 53  1  0  0  0  0
 27 54  1  0  0  0  0
 27 55  1  0  0  0  0
 28 29  2  0  0  0  0
 28 30  1  0  0  0  0
 29 31  1  0  0  0  0
 30 32  2  0  0  0  0
 30 56  1  0  0  0  0
 31 33  2  0  0  0  0
 32 33  1  0  0  0  0
 32 57  1  0  0  0  0
 33 58  1  0  0  0  0
M  END
> <PUBCHEM_COMPOUND_CID>
11488320

> <PUBCHEM_COMPOUND_CANONICALIZED>
1

> <PUBCHEM_CACTVS_COMPLEXITY>
641

> <PUBCHEM_CACTVS_HBOND_ACCEPTOR>
8

> <PUBCHEM_CACTVS_HBOND_DONOR>
2

> <PUBCHEM_CACTVS_ROTATABLE_BOND>
7

> <PUBCHEM_CACTVS_SUBSKEYS>
AAADceB7sQAEAAAAAAAAAAAAAAAAAAAAAAA8eIEAAAAAAACx9AAAHwIQAAAADB7hni439vfIFACoAydzdACCiCkxJ6AJ2KC+7piNbuLF+/uWPCru0hvK6Cew0BMOIEABAgICQABAgAIEBASAAAAAAAAAAA==

> <PUBCHEM_IUPAC_OPENEYE_NAME>
2-[4-[4-(3-chloro-2-fluoro-anilino)-7-methoxy-quinazolin-6-yl]oxy-1-piperidyl]-N-methyl-acetamide

> <PUBCHEM_IUPAC_CAS_NAME>
2-[4-[[4-(3-chloro-2-fluoroanilino)-7-methoxy-6-quinazolinyl]oxy]-1-piperidinyl]-N-methylacetamide

> <PUBCHEM_IUPAC_NAME_MARKUP>
2-[4-[4-(3-chloro-2-fluoroanilino)-7-methoxyquinazolin-6-yl]oxypiperidin-1-yl]-<I>N</I>-methylacetamide

> <PUBCHEM_IUPAC_NAME>
2-[4-[4-(3-chloro-2-fluoroanilino)-7-methoxyquinazolin-6-yl]oxypiperidin-1-yl]-N-methylacetamide

> <PUBCHEM_IUPAC_SYSTEMATIC_NAME>
2-[4-[4-[(3-chloranyl-2-fluoranyl-phenyl)amino]-7-methoxy-quinazolin-6-yl]oxypiperidin-1-yl]-N-methyl-ethanamide

> <PUBCHEM_IUPAC_TRADITIONAL_NAME>
2-[4-[4-(3-chloro-2-fluoro-anilino)-7-methoxy-quinazolin-6-yl]oxypiperidino]-N-methyl-acetamide

> <PUBCHEM_IUPAC_INCHI>
InChI=1S/C23H25ClFN5O3/c1-26-21(31)12-30-8-6-14(7-9-30)33-20-10-15-18(11-19(20)32-2)27-13-28-23(15)29-17-5-3-4-16(24)22(17)25/h3-5,10-11,13-14H,6-9,12H2,1-2H3,(H,26,31)(H,27,28,29)

> <PUBCHEM_IUPAC_INCHIKEY>
DFJSJLGUIXFDJP-UHFFFAOYSA-N

> <PUBCHEM_XLOGP3_AA>
4

> <PUBCHEM_EXACT_MASS>
473.162996

> <PUBCHEM_MOLECULAR_FORMULA>
C23H25ClFN5O3

> <PUBCHEM_MOLECULAR_WEIGHT>
473.9

> <PUBCHEM_OPENEYE_CAN_SMILES>
CNC(=O)CN1CCC(CC1)OC2=C(C=C3C(=C2)C(=NC=N3)NC4=C(C(=CC=C4)Cl)F)OC

> <PUBCHEM_OPENEYE_ISO_SMILES>
CNC(=O)CN1CCC(CC1)OC2=C(C=C3C(=C2)C(=NC=N3)NC4=C(C(=CC=C4)Cl)F)OC

> <PUBCHEM_CACTVS_TPSA>
88.6

> <PUBCHEM_MONOISOTOPIC_WEIGHT>
473.162996

> <PUBCHEM_TOTAL_CHARGE>
0

> <PUBCHEM_HEAVY_ATOM_COUNT>
33

> <PUBCHEM_ATOM_DEF_STEREO_COUNT>
0

> <PUBCHEM_ATOM_UDEF_STEREO_COUNT>
0

> <PUBCHEM_BOND_DEF_STEREO_COUNT>
0

> <PUBCHEM_BOND_UDEF_STEREO_COUNT>
0

> <PUBCHEM_ISOTOPIC_ATOM_COUNT>
0

> <PUBCHEM_COMPONENT_COUNT>
1

> <PUBCHEM_CACTVS_TAUTO_COUNT>
-1

> <PUBCHEM_COORDINATE_TYPE>
1
5
255

> <PUBCHEM_BONDANNOTATIONS>
10  24  8
10  26  8
17  19  8
17  20  8
19  21  8
20  22  8
21  23  8
21  24  8
22  23  8
28  29  8
28  30  8
29  31  8
30  32  8
31  33  8
32  33  8
8  23  8
8  26  8

$$$$
3385
  -OEChem-02182015162D

 12 12  0     0  0  0  0  0  0999 V2000
    2.0000    1.3100    0.0000 F   0  0  0  0  0  0  0  0  0  0  0  0
    2.0000   -0.6900    0.0000 O   0  0  0  0  0  0  0  0  0  0  0  0
    5.4641   -0.6900    0.0000 O   0  0  0  0  0  0  0  0  0  0  0  0
    3.7320   -0.6900    0.0000 N   0  0  0  0  0  0  0  0  0  0  0  0
    4.5981    0.8100    0.0000 N   0  0  0  0  0  0  0  0  0  0  0  0
    2.8660   -0.1900    0.0000 C   0  0  0  0  0  0  0  0  0  0  0  0
    4.5981   -0.1900    0.0000 C   0  0  0  0  0  0  0  0  0  0  0  0
    2.8660    0.8100    0.0000 C   0  0  0  0  0  0  0  0  0  0  0  0
    3.7320    1.3100    0.0000 C   0  0  0  0  0  0  0  0  0  0  0  0
    3.7320   -1.3100    0.0000 H   0  0  0  0  0  0  0  0  0  0  0  0
    5.1350    1.1200    0.0000 H   0  0  0  0  0  0  0  0  0  0  0  0
    3.7320    1.9300    0.0000 H   0  0  0  0  0  0  0  0  0  0  0  0
  1  8  1  0  0  0  0
  2  6  2  0  0  0  0
  3  7  2  0  0  0  0
  4  6  1  0  0  0  0
  4  7  1  0  0  0  0
  4 10  1  0  0  0  0
  5  7  1  0  0  0  0
  5  9  1  0  0  0  0
  5 11  1  0  0  0  0
  6  8  1  0  0  0  0
  8  9  2  0  0  0  0
  9 12  1  0  0  0  0
M  END
> <PUBCHEM_COMPOUND_CID>
3385

> <PUBCHEM_COMPOUND_CANONICALIZED>
1

> <PUBCHEM_CACTVS_COMPLEXITY>
199

> <PUBCHEM_CACTVS_HBOND_ACCEPTOR>
3

> <PUBCHEM_CACTVS_HBOND_DONOR>
2

> <PUBCHEM_CACTVS_ROTATABLE_BOND>
0

> <PUBCHEM_CACTVS_SUBSKEYS>
AAADcQBjMQAAAAAAAAAAAAAAAAAAAAAAAAAgAAAAAAAAAAAAAAAAHwAQAAAACADBgAQBAALAAACIAAFWUACAAAAAAAAAAIAIAECAAAAAAAAAAAAIByIAAMAAAAAAAAAAAAAAAAAAAAAAAAAAAAAAAAAAAA==

> <PUBCHEM_IUPAC_OPENEYE_NAME>
5-fluoro-1H-pyrimidine-2,4-dione

> <PUBCHEM_IUPAC_CAS_NAME>
5-fluoro-1H-pyrimidine-2,4-dione

> <PUBCHEM_IUPAC_NAME_MARKUP>
5-fluoro-1<I>H</I>-pyrimidine-2,4-dione

> <PUBCHEM_IUPAC_NAME>
5-fluoro-1H-pyrimidine-2,4-dione

> <PUBCHEM_IUPAC_SYSTEMATIC_NAME>
5-fluoranyl-1H-pyrimidine-2,4-dione

> <PUBCHEM_IUPAC_TRADITIONAL_NAME>
5-fluorouracil

> <PUBCHEM_IUPAC_INCHI>
InChI=1S/C4H3FN2O2/c5-2-1-6-4(9)7-3(2)8/h1H,(H2,6,7,8,9)

> <PUBCHEM_IUPAC_INCHIKEY>
GHASVSINZRGABV-UHFFFAOYSA-N

> <PUBCHEM_XLOGP3>
-0.9

> <PUBCHEM_EXACT_MASS>
130.017856

> <PUBCHEM_MOLECULAR_FORMULA>
C4H3FN2O2

> <PUBCHEM_MOLECULAR_WEIGHT>
130.08

> <PUBCHEM_OPENEYE_CAN_SMILES>
C1=C(C(=O)NC(=O)N1)F

> <PUBCHEM_OPENEYE_ISO_SMILES>
C1=C(C(=O)NC(=O)N1)F

> <PUBCHEM_CACTVS_TPSA>
58.2

> <PUBCHEM_MONOISOTOPIC_WEIGHT>
130.017856

> <PUBCHEM_TOTAL_CHARGE>
0

> <PUBCHEM_HEAVY_ATOM_COUNT>
9

> <PUBCHEM_ATOM_DEF_STEREO_COUNT>
0

> <PUBCHEM_ATOM_UDEF_STEREO_COUNT>
0

> <PUBCHEM_BOND_DEF_STEREO_COUNT>
0

> <PUBCHEM_BOND_UDEF_STEREO_COUNT>
0

> <PUBCHEM_ISOTOPIC_ATOM_COUNT>
0

> <PUBCHEM_COMPONENT_COUNT>
1

> <PUBCHEM_CACTVS_TAUTO_COUNT>
-1

> <PUBCHEM_COORDINATE_TYPE>
1
5
255

> <PUBCHEM_BONDANNOTATIONS>
4  6  8
4  7  8
5  7  8
5  9  8
6  8  8
8  9  8

$$$$
9914412
  -OEChem-02182015172D

 69 73  0     0  0  0  0  0  0999 V2000
    2.0000    5.7972    0.0000 O   0  0  0  0  0  0  0  0  0  0  0  0
    5.4641    1.7972    0.0000 O   0  0  0  0  0  0  0  0  0  0  0  0
    5.4641   -0.2028    0.0000 O   0  0  0  0  0  0  0  0  0  0  0  0
   11.5020   -4.7672    0.0000 O   0  0  0  0  0  0  0  0  0  0  0  0
    3.7320    4.7972    0.0000 N   0  0  0  0  0  0  0  0  0  0  0  0
    8.9446   -1.2374    0.0000 N   0  0  0  0  0  0  0  0  0  0  0  0
    8.9561    1.8318    0.0000 N   0  0  0  0  0  0  0  0  0  0  0  0
    9.8622    0.2764    0.0000 N   0  0  0  0  0  0  0  0  0  0  0  0
   12.3853   -3.2773    0.0000 N   0  0  0  0  0  0  0  0  0  0  0  0
    2.8660    4.2972    0.0000 C   0  0  0  0  0  0  0  0  0  0  0  0
    3.7320    5.7972    0.0000 C   0  0  0  0  0  0  0  0  0  0  0  0
    4.5981    4.2972    0.0000 C   0  0  0  0  0  0  0  0  0  0  0  0
    2.0000    4.7972    0.0000 C   0  0  0  0  0  0  0  0  0  0  0  0
    2.8660    6.2972    0.0000 C   0  0  0  0  0  0  0  0  0  0  0  0
    4.5981    3.2972    0.0000 C   0  0  0  0  0  0  0  0  0  0  0  0
    5.4641    2.7972    0.0000 C   0  0  0  0  0  0  0  0  0  0  0  0
    6.3301    1.2972    0.0000 C   0  0  0  0  0  0  0  0  0  0  0  0
    6.3301    0.2972    0.0000 C   0  0  0  0  0  0  0  0  0  0  0  0
    7.1962    1.7972    0.0000 C   0  0  0  0  0  0  0  0  0  0  0  0
    8.0622    0.2972    0.0000 C   0  0  0  0  0  0  0  0  0  0  0  0
    8.0622    1.2972    0.0000 C   0  0  0  0  0  0  0  0  0  0  0  0
    7.1962   -0.2028    0.0000 C   0  0  0  0  0  0  0  0  0  0  0  0
    8.9561   -0.2375    0.0000 C   0  0  0  0  0  0  0  0  0  0  0  0
    9.8047   -1.7474    0.0000 C   0  0  0  0  0  0  0  0  0  0  0  0
    9.8622    1.3180    0.0000 C   0  0  0  0  0  0  0  0  0  0  0  0
   10.6765   -1.2574    0.0000 C   0  0  0  0  0  0  0  0  0  0  0  0
    9.7932   -2.7473    0.0000 C   0  0  0  0  0  0  0  0  0  0  0  0
   11.5251   -2.7674    0.0000 C   0  0  0  0  0  0  0  0  0  0  0  0
    5.4641   -1.2028    0.0000 C   0  0  0  0  0  0  0  0  0  0  0  0
   11.5367   -1.7674    0.0000 C   0  0  0  0  0  0  0  0  0  0  0  0
   10.6534   -3.2573    0.0000 C   0  0  0  0  0  0  0  0  0  0  0  0
   12.3737   -4.2773    0.0000 C   0  0  0  0  0  0  0  0  0  0  0  0
   13.2339   -4.7873    0.0000 C   0  0  0  0  0  0  0  0  0  0  0  0
   13.2224   -5.7872    0.0000 C   0  0  0  0  0  0  0  0  0  0  0  0
   14.1057   -4.2973    0.0000 C   0  0  0  0  0  0  0  0  0  0  0  0
   14.0825   -6.2972    0.0000 C   0  0  0  0  0  0  0  0  0  0  0  0
   14.9659   -4.8073    0.0000 C   0  0  0  0  0  0  0  0  0  0  0  0
   14.9543   -5.8072    0.0000 C   0  0  0  0  0  0  0  0  0  0  0  0
    2.4675    3.8222    0.0000 H   0  0  0  0  0  0  0  0  0  0  0  0
    3.2646    3.8222    0.0000 H   0  0  0  0  0  0  0  0  0  0  0  0
    4.3426    5.6895    0.0000 H   0  0  0  0  0  0  0  0  0  0  0  0
    3.9441    6.3798    0.0000 H   0  0  0  0  0  0  0  0  0  0  0  0
    5.2087    4.1895    0.0000 H   0  0  0  0  0  0  0  0  0  0  0  0
    4.8101    4.8798    0.0000 H   0  0  0  0  0  0  0  0  0  0  0  0
    1.3894    4.9048    0.0000 H   0  0  0  0  0  0  0  0  0  0  0  0
    1.7880    4.2146    0.0000 H   0  0  0  0  0  0  0  0  0  0  0  0
    3.2646    6.7721    0.0000 H   0  0  0  0  0  0  0  0  0  0  0  0
    2.4675    6.7721    0.0000 H   0  0  0  0  0  0  0  0  0  0  0  0
    3.9875    3.4048    0.0000 H   0  0  0  0  0  0  0  0  0  0  0  0
    4.3860    2.7146    0.0000 H   0  0  0  0  0  0  0  0  0  0  0  0
    6.0747    2.6895    0.0000 H   0  0  0  0  0  0  0  0  0  0  0  0
    5.6762    3.3798    0.0000 H   0  0  0  0  0  0  0  0  0  0  0  0
    7.1962    2.4172    0.0000 H   0  0  0  0  0  0  0  0  0  0  0  0
    7.1962   -0.8228    0.0000 H   0  0  0  0  0  0  0  0  0  0  0  0
    8.4041   -1.5412    0.0000 H   0  0  0  0  0  0  0  0  0  0  0  0
   10.3979    1.6301    0.0000 H   0  0  0  0  0  0  0  0  0  0  0  0
   10.6837   -0.6375    0.0000 H   0  0  0  0  0  0  0  0  0  0  0  0
    9.2527   -3.0511    0.0000 H   0  0  0  0  0  0  0  0  0  0  0  0
   12.0772   -1.4637    0.0000 H   0  0  0  0  0  0  0  0  0  0  0  0
   10.6462   -3.8773    0.0000 H   0  0  0  0  0  0  0  0  0  0  0  0
    4.8441   -1.2028    0.0000 H   0  0  0  0  0  0  0  0  0  0  0  0
    5.4641   -1.8228    0.0000 H   0  0  0  0  0  0  0  0  0  0  0  0
    6.0841   -1.2028    0.0000 H   0  0  0  0  0  0  0  0  0  0  0  0
   12.9258   -2.9736    0.0000 H   0  0  0  0  0  0  0  0  0  0  0  0
   12.6819   -6.0910    0.0000 H   0  0  0  0  0  0  0  0  0  0  0  0
   14.1128   -3.6774    0.0000 H   0  0  0  0  0  0  0  0  0  0  0  0
   14.0754   -6.9171    0.0000 H   0  0  0  0  0  0  0  0  0  0  0  0
   15.5063   -4.5035    0.0000 H   0  0  0  0  0  0  0  0  0  0  0  0
   15.4876   -6.1234    0.0000 H   0  0  0  0  0  0  0  0  0  0  0  0
  1 13  1  0  0  0  0
  1 14  1  0  0  0  0
  2 16  1  0  0  0  0
  2 17  1  0  0  0  0
  3 18  1  0  0  0  0
  3 29  1  0  0  0  0
  4 32  2  0  0  0  0
  5 10  1  0  0  0  0
  5 11  1  0  0  0  0
  5 12  1  0  0  0  0
  6 23  1  0  0  0  0
  6 24  1  0  0  0  0
  6 55  1  0  0  0  0
  7 21  1  0  0  0  0
  7 25  2  0  0  0  0
  8 23  2  0  0  0  0
  8 25  1  0  0  0  0
  9 28  1  0  0  0  0
  9 32  1  0  0  0  0
  9 64  1  0  0  0  0
 10 13  1  0  0  0  0
 10 39  1  0  0  0  0
 10 40  1  0  0  0  0
 11 14  1  0  0  0  0
 11 41  1  0  0  0  0
 11 42  1  0  0  0  0
 12 15  1  0  0  0  0
 12 43  1  0  0  0  0
 12 44  1  0  0  0  0
 13 45  1  0  0  0  0
 13 46  1  0  0  0  0
 14 47  1  0  0  0  0
 14 48  1  0  0  0  0
 15 16  1  0  0  0  0
 15 49  1  0  0  0  0
 15 50  1  0  0  0  0
 16 51  1  0  0  0  0
 16 52  1  0  0  0  0
 17 18  2  0  0  0  0
 17 19  1  0  0  0  0
 18 22  1  0  0  0  0
 19 21  2  0  0  0  0
 19 53  1  0  0  0  0
 20 21  1  0  0  0  0
 20 22  2  0  0  0  0
 20 23  1  0  0  0  0
 22 54  1  0  0  0  0
 24 26  2  0  0  0  0
 24 27  1  0  0  0  0
 25 56  1  0  0  0  0
 26 30  1  0  0  0  0
 26 57  1  0  0  0  0
 27 31  2  0  0  0  0
 27 58  1  0  0  0  0
 28 30  2  0  0  0  0
 28 31  1  0  0  0  0
 29 61  1  0  0  0  0
 29 62  1  0  0  0  0
 29 63  1  0  0  0  0
 30 59  1  0  0  0  0
 31 60  1  0  0  0  0
 32 33  1  0  0  0  0
 33 34  2  0  0  0  0
 33 35  1  0  0  0  0
 34 36  1  0  0  0  0
 34 65  1  0  0  0  0
 35 37  2  0  0  0  0
 35 66  1  0  0  0  0
 36 38  2  0  0  0  0
 36 67  1  0  0  0  0
 37 38  1  0  0  0  0
 37 68  1  0  0  0  0
 38 69  1  0  0  0  0
M  END
> <PUBCHEM_COMPOUND_CID>
9914412

> <PUBCHEM_COMPOUND_CANONICALIZED>
1

> <PUBCHEM_CACTVS_COMPLEXITY>
709

> <PUBCHEM_CACTVS_HBOND_ACCEPTOR>
8

> <PUBCHEM_CACTVS_HBOND_DONOR>
2

> <PUBCHEM_CACTVS_ROTATABLE_BOND>
10

> <PUBCHEM_CACTVS_SUBSKEYS>
AAADceB7uAAAAAAAAAAAAAAAAAAAAAAAAAA8eMECAAAAAACx9AAAHgAQAAAADAzhngY39vfIFACoAydzdACCiCk1IqAJ2CE+7NiPLvLE/duHPSru1Bva6ae42BOOIECBAgACQABAgQIEAASAAAAAAAAAAA==

> <PUBCHEM_IUPAC_OPENEYE_NAME>
N-[4-[[6-methoxy-7-(3-morpholinopropoxy)quinazolin-4-yl]amino]phenyl]benzamide

> <PUBCHEM_IUPAC_CAS_NAME>
N-[4-[[6-methoxy-7-[3-(4-morpholinyl)propoxy]-4-quinazolinyl]amino]phenyl]benzamide

> <PUBCHEM_IUPAC_NAME_MARKUP>
<I>N</I>-[4-[[6-methoxy-7-(3-morpholin-4-ylpropoxy)quinazolin-4-yl]amino]phenyl]benzamide

> <PUBCHEM_IUPAC_NAME>
N-[4-[[6-methoxy-7-(3-morpholin-4-ylpropoxy)quinazolin-4-yl]amino]phenyl]benzamide

> <PUBCHEM_IUPAC_SYSTEMATIC_NAME>
N-[4-[[6-methoxy-7-(3-morpholin-4-ylpropoxy)quinazolin-4-yl]amino]phenyl]benzamide

> <PUBCHEM_IUPAC_TRADITIONAL_NAME>
N-[4-[[6-methoxy-7-(3-morpholinopropoxy)quinazolin-4-yl]amino]phenyl]benzamide

> <PUBCHEM_IUPAC_INCHI>
InChI=1S/C29H31N5O4/c1-36-26-18-24-25(19-27(26)38-15-5-12-34-13-16-37-17-14-34)30-20-31-28(24)32-22-8-10-23(11-9-22)33-29(35)21-6-3-2-4-7-21/h2-4,6-11,18-20H,5,12-17H2,1H3,(H,33,35)(H,30,31,32)

> <PUBCHEM_IUPAC_INCHIKEY>
OGNYUTNQZVRGMN-UHFFFAOYSA-N

> <PUBCHEM_XLOGP3_AA>
4.2

> <PUBCHEM_EXACT_MASS>
513.237604

> <PUBCHEM_MOLECULAR_FORMULA>
C29H31N5O4

> <PUBCHEM_MOLECULAR_WEIGHT>
513.6

> <PUBCHEM_OPENEYE_CAN_SMILES>
COC1=C(C=C2C(=C1)C(=NC=N2)NC3=CC=C(C=C3)NC(=O)C4=CC=CC=C4)OCCCN5CCOCC5

> <PUBCHEM_OPENEYE_ISO_SMILES>
COC1=C(C=C2C(=C1)C(=NC=N2)NC3=CC=C(C=C3)NC(=O)C4=CC=CC=C4)OCCCN5CCOCC5

> <PUBCHEM_CACTVS_TPSA>
97.8

> <PUBCHEM_MONOISOTOPIC_WEIGHT>
513.237604

> <PUBCHEM_TOTAL_CHARGE>
0

> <PUBCHEM_HEAVY_ATOM_COUNT>
38

> <PUBCHEM_ATOM_DEF_STEREO_COUNT>
0

> <PUBCHEM_ATOM_UDEF_STEREO_COUNT>
0

> <PUBCHEM_BOND_DEF_STEREO_COUNT>
0

> <PUBCHEM_BOND_UDEF_STEREO_COUNT>
0

> <PUBCHEM_ISOTOPIC_ATOM_COUNT>
0

> <PUBCHEM_COMPONENT_COUNT>
1

> <PUBCHEM_CACTVS_TAUTO_COUNT>
-1

> <PUBCHEM_COORDINATE_TYPE>
1
5
255

> <PUBCHEM_BONDANNOTATIONS>
17  18  8
17  19  8
18  22  8
19  21  8
20  21  8
20  22  8
20  23  8
24  26  8
24  27  8
26  30  8
27  31  8
28  30  8
28  31  8
33  34  8
33  35  8
34  36  8
35  37  8
36  38  8
37  38  8
7  21  8
7  25  8
8  23  8
8  25  8

$$$$
11364421
  -OEChem-02182015172D

 77 81  0     1  0  0  0  0  0999 V2000
    2.8660    1.5432    0.0000 O   0  0  0  0  0  0  0  0  0  0  0  0
   11.6038    2.5057    0.0000 O   0  0  0  0  0  0  0  0  0  0  0  0
    9.8564   -1.4876    0.0000 O   0  0  0  0  0  0  0  0  0  0  0  0
    4.5981   -0.4568    0.0000 N   0  0  3  0  0  0  0  0  0  0  0  0
    4.5981    1.5432    0.0000 N   0  0  0  0  0  0  0  0  0  0  0  0
    6.3580   -0.4915    0.0000 N   0  0  0  0  0  0  0  0  0  0  0  0
   15.0679    2.4923    0.0000 N   0  0  0  0  0  0  0  0  0  0  0  0
   12.4641    1.0023    0.0000 N   0  0  0  0  0  0  0  0  0  0  0  0
    7.2641    1.0640    0.0000 N   0  0  0  0  0  0  0  0  0  0  0  0
    8.1282   -0.4810    0.0000 N   0  0  0  0  0  0  0  0  0  0  0  0
    4.5981   -1.4568    0.0000 C   0  0  0  0  0  0  0  0  0  0  0  0
    3.7891   -2.0446    0.0000 C   0  0  0  0  0  0  0  0  0  0  0  0
    5.4071   -2.0446    0.0000 C   0  0  0  0  0  0  0  0  0  0  0  0
    4.0981   -2.9956    0.0000 C   0  0  0  0  0  0  0  0  0  0  0  0
    5.0981   -2.9956    0.0000 C   0  0  0  0  0  0  0  0  0  0  0  0
    3.7320    0.0432    0.0000 C   0  0  2  0  0  0  0  0  0  0  0  0
    5.4641    0.0432    0.0000 C   0  0  0  0  0  0  0  0  0  0  0  0
    2.8660   -0.4568    0.0000 C   0  0  0  0  0  0  0  0  0  0  0  0
    3.7320    1.0432    0.0000 C   0  0  0  0  0  0  0  0  0  0  0  0
    5.4641    1.0432    0.0000 C   0  0  0  0  0  0  0  0  0  0  0  0
   13.3320    1.4990    0.0000 C   0  0  0  0  0  0  0  0  0  0  0  0
    2.0000    0.0432    0.0000 C   0  0  0  0  0  0  0  0  0  0  0  0
   13.3359    2.4990    0.0000 C   0  0  0  0  0  0  0  0  0  0  0  0
   14.1961    0.9957    0.0000 C   0  0  0  0  0  0  0  0  0  0  0  0
   14.2038    2.9956    0.0000 C   0  0  0  0  0  0  0  0  0  0  0  0
   15.0641    1.4923    0.0000 C   0  0  0  0  0  0  0  0  0  0  0  0
    6.3580    1.5778    0.0000 C   0  0  0  0  0  0  0  0  0  0  0  0
    4.5981    2.5432    0.0000 C   0  0  0  0  0  0  0  0  0  0  0  0
    7.2641    0.0224    0.0000 C   0  0  0  0  0  0  0  0  0  0  0  0
   15.9359    2.9890    0.0000 C   0  0  0  0  0  0  0  0  0  0  0  0
   11.6000    1.5057    0.0000 C   0  0  0  0  0  0  0  0  0  0  0  0
    8.9962    0.0157    0.0000 C   0  0  0  0  0  0  0  0  0  0  0  0
   10.7320    1.0090    0.0000 C   0  0  0  0  0  0  0  0  0  0  0  0
    9.8602   -0.4876    0.0000 C   0  0  0  0  0  0  0  0  0  0  0  0
   10.7282    0.0090    0.0000 C   0  0  0  0  0  0  0  0  0  0  0  0
    9.0000    1.0157    0.0000 C   0  0  0  0  0  0  0  0  0  0  0  0
    9.8680    1.5124    0.0000 C   0  0  0  0  0  0  0  0  0  0  0  0
   10.7205   -1.9910    0.0000 C   0  0  0  0  0  0  0  0  0  0  0  0
    5.1505   -1.1753    0.0000 H   0  0  0  0  0  0  0  0  0  0  0  0
    3.4791   -1.5077    0.0000 H   0  0  0  0  0  0  0  0  0  0  0  0
    3.2227   -2.2968    0.0000 H   0  0  0  0  0  0  0  0  0  0  0  0
    5.9735   -2.2968    0.0000 H   0  0  0  0  0  0  0  0  0  0  0  0
    5.7171   -1.5077    0.0000 H   0  0  0  0  0  0  0  0  0  0  0  0
    3.4916   -3.1246    0.0000 H   0  0  0  0  0  0  0  0  0  0  0  0
    4.1629   -3.6122    0.0000 H   0  0  0  0  0  0  0  0  0  0  0  0
    5.0333   -3.6122    0.0000 H   0  0  0  0  0  0  0  0  0  0  0  0
    5.7045   -3.1246    0.0000 H   0  0  0  0  0  0  0  0  0  0  0  0
    3.7320   -0.5768    0.0000 H   0  0  0  0  0  0  0  0  0  0  0  0
    2.4675   -0.9318    0.0000 H   0  0  0  0  0  0  0  0  0  0  0  0
    3.2646   -0.9318    0.0000 H   0  0  0  0  0  0  0  0  0  0  0  0
   12.7963    1.8111    0.0000 H   0  0  0  0  0  0  0  0  0  0  0  0
    2.3100    0.5801    0.0000 H   0  0  0  0  0  0  0  0  0  0  0  0
    1.4631    0.3532    0.0000 H   0  0  0  0  0  0  0  0  0  0  0  0
    1.6900   -0.4937    0.0000 H   0  0  0  0  0  0  0  0  0  0  0  0
   13.1261    3.0824    0.0000 H   0  0  0  0  0  0  0  0  0  0  0  0
   12.7249    2.3937    0.0000 H   0  0  0  0  0  0  0  0  0  0  0  0
   13.7958    0.5223    0.0000 H   0  0  0  0  0  0  0  0  0  0  0  0
   14.5928    0.5192    0.0000 H   0  0  0  0  0  0  0  0  0  0  0  0
   14.6042    3.4691    0.0000 H   0  0  0  0  0  0  0  0  0  0  0  0
   13.8071    3.4721    0.0000 H   0  0  0  0  0  0  0  0  0  0  0  0
   15.2739    0.9089    0.0000 H   0  0  0  0  0  0  0  0  0  0  0  0
   15.6751    1.5976    0.0000 H   0  0  0  0  0  0  0  0  0  0  0  0
    6.3509    2.1978    0.0000 H   0  0  0  0  0  0  0  0  0  0  0  0
    5.2181    2.5432    0.0000 H   0  0  0  0  0  0  0  0  0  0  0  0
    4.5981    3.1632    0.0000 H   0  0  0  0  0  0  0  0  0  0  0  0
    3.9781    2.5432    0.0000 H   0  0  0  0  0  0  0  0  0  0  0  0
   12.4617    0.3823    0.0000 H   0  0  0  0  0  0  0  0  0  0  0  0
   16.2438    2.4508    0.0000 H   0  0  0  0  0  0  0  0  0  0  0  0
   16.4740    3.2969    0.0000 H   0  0  0  0  0  0  0  0  0  0  0  0
   15.6279    3.5271    0.0000 H   0  0  0  0  0  0  0  0  0  0  0  0
    8.1258   -1.1010    0.0000 H   0  0  0  0  0  0  0  0  0  0  0  0
   11.2639   -0.3030    0.0000 H   0  0  0  0  0  0  0  0  0  0  0  0
    8.4643    1.3278    0.0000 H   0  0  0  0  0  0  0  0  0  0  0  0
    9.8703    2.1324    0.0000 H   0  0  0  0  0  0  0  0  0  0  0  0
   10.4084   -2.5267    0.0000 H   0  0  0  0  0  0  0  0  0  0  0  0
   11.2562   -2.3030    0.0000 H   0  0  0  0  0  0  0  0  0  0  0  0
   11.0325   -1.4552    0.0000 H   0  0  0  0  0  0  0  0  0  0  0  0
  1 19  2  0  0  0  0
  2 31  2  0  0  0  0
  3 34  1  0  0  0  0
  3 38  1  0  0  0  0
  4 11  1  0  0  0  0
  4 16  1  0  0  0  0
  4 17  1  0  0  0  0
  5 19  1  0  0  0  0
  5 20  1  0  0  0  0
  5 28  1  0  0  0  0
  6 17  2  0  0  0  0
  6 29  1  0  0  0  0
  7 25  1  0  0  0  0
  7 26  1  0  0  0  0
  7 30  1  0  0  0  0
  8 21  1  0  0  0  0
  8 31  1  0  0  0  0
  8 67  1  0  0  0  0
  9 27  1  0  0  0  0
  9 29  2  0  0  0  0
 10 29  1  0  0  0  0
 10 32  1  0  0  0  0
 10 71  1  0  0  0  0
 11 12  1  0  0  0  0
 11 13  1  0  0  0  0
 11 39  1  0  0  0  0
 12 14  1  0  0  0  0
 12 40  1  0  0  0  0
 12 41  1  0  0  0  0
 13 15  1  0  0  0  0
 13 42  1  0  0  0  0
 13 43  1  0  0  0  0
 14 15  1  0  0  0  0
 14 44  1  0  0  0  0
 14 45  1  0  0  0  0
 15 46  1  0  0  0  0
 15 47  1  0  0  0  0
 16 18  1  6  0  0  0
 16 19  1  0  0  0  0
 16 48  1  0  0  0  0
 17 20  1  0  0  0  0
 18 22  1  0  0  0  0
 18 49  1  0  0  0  0
 18 50  1  0  0  0  0
 20 27  2  0  0  0  0
 21 23  1  0  0  0  0
 21 24  1  0  0  0  0
 21 51  1  0  0  0  0
 22 52  1  0  0  0  0
 22 53  1  0  0  0  0
 22 54  1  0  0  0  0
 23 25  1  0  0  0  0
 23 55  1  0  0  0  0
 23 56  1  0  0  0  0
 24 26  1  0  0  0  0
 24 57  1  0  0  0  0
 24 58  1  0  0  0  0
 25 59  1  0  0  0  0
 25 60  1  0  0  0  0
 26 61  1  0  0  0  0
 26 62  1  0  0  0  0
 27 63  1  0  0  0  0
 28 64  1  0  0  0  0
 28 65  1  0  0  0  0
 28 66  1  0  0  0  0
 30 68  1  0  0  0  0
 30 69  1  0  0  0  0
 30 70  1  0  0  0  0
 31 33  1  0  0  0  0
 32 34  2  0  0  0  0
 32 36  1  0  0  0  0
 33 35  2  0  0  0  0
 33 37  1  0  0  0  0
 34 35  1  0  0  0  0
 35 72  1  0  0  0  0
 36 37  2  0  0  0  0
 36 73  1  0  0  0  0
 37 74  1  0  0  0  0
 38 75  1  0  0  0  0
 38 76  1  0  0  0  0
 38 77  1  0  0  0  0
M  END
> <PUBCHEM_COMPOUND_CID>
11364421

> <PUBCHEM_COMPOUND_CANONICALIZED>
1

> <PUBCHEM_CACTVS_COMPLEXITY>
816

> <PUBCHEM_CACTVS_HBOND_ACCEPTOR>
8

> <PUBCHEM_CACTVS_HBOND_DONOR>
2

> <PUBCHEM_CACTVS_ROTATABLE_BOND>
7

> <PUBCHEM_CACTVS_SUBSKEYS>
AAADcfB7sAAAAAAAAAAAAAAAAAAAAYAAAAA8WLEAAAAAAACxwAAAHgAQAAAADCzBmgY/9pfIFACoAjd3dACCiCk1MqAJ2KGvfNiObrLE/fuVNShs1hPY6ae6yRCeCAABAAAAEAAQAAIAAAAgAAAAAAAAAA==

> <PUBCHEM_IUPAC_OPENEYE_NAME>
4-[[(7R)-8-cyclopentyl-7-ethyl-5-methyl-6-oxo-7H-pteridin-2-yl]amino]-3-methoxy-N-(1-methyl-4-piperidyl)benzamide

> <PUBCHEM_IUPAC_CAS_NAME>
4-[[(7R)-8-cyclopentyl-7-ethyl-5-methyl-6-oxo-7H-pteridin-2-yl]amino]-3-methoxy-N-(1-methyl-4-piperidinyl)benzamide

> <PUBCHEM_IUPAC_NAME_MARKUP>
4-[[(7<I>R</I>)-8-cyclopentyl-7-ethyl-5-methyl-6-oxo-7<I>H</I>-pteridin-2-yl]amino]-3-methoxy-<I>N</I>-(1-methylpiperidin-4-yl)benzamide

> <PUBCHEM_IUPAC_NAME>
4-[[(7R)-8-cyclopentyl-7-ethyl-5-methyl-6-oxo-7H-pteridin-2-yl]amino]-3-methoxy-N-(1-methylpiperidin-4-yl)benzamide

> <PUBCHEM_IUPAC_SYSTEMATIC_NAME>
4-[[(7R)-8-cyclopentyl-7-ethyl-5-methyl-6-oxidanylidene-7H-pteridin-2-yl]amino]-3-methoxy-N-(1-methylpiperidin-4-yl)benzamide

> <PUBCHEM_IUPAC_TRADITIONAL_NAME>
4-[[(7R)-8-cyclopentyl-7-ethyl-6-keto-5-methyl-7H-pteridin-2-yl]amino]-3-methoxy-N-(1-methyl-4-piperidyl)benzamide

> <PUBCHEM_IUPAC_INCHI>
InChI=1S/C28H39N7O3/c1-5-22-27(37)34(3)23-17-29-28(32-25(23)35(22)20-8-6-7-9-20)31-21-11-10-18(16-24(21)38-4)26(36)30-19-12-14-33(2)15-13-19/h10-11,16-17,19-20,22H,5-9,12-15H2,1-4H3,(H,30,36)(H,29,31,32)/t22-/m1/s1

> <PUBCHEM_IUPAC_INCHIKEY>
XQVVPGYIWAGRNI-JOCHJYFZSA-N

> <PUBCHEM_XLOGP3_AA>
3.7

> <PUBCHEM_EXACT_MASS>
521.311438

> <PUBCHEM_MOLECULAR_FORMULA>
C28H39N7O3

> <PUBCHEM_MOLECULAR_WEIGHT>
521.7

> <PUBCHEM_OPENEYE_CAN_SMILES>
CCC1C(=O)N(C2=CN=C(N=C2N1C3CCCC3)NC4=C(C=C(C=C4)C(=O)NC5CCN(CC5)C)OC)C

> <PUBCHEM_OPENEYE_ISO_SMILES>
CC[C@@H]1C(=O)N(C2=CN=C(N=C2N1C3CCCC3)NC4=C(C=C(C=C4)C(=O)NC5CCN(CC5)C)OC)C

> <PUBCHEM_CACTVS_TPSA>
103

> <PUBCHEM_MONOISOTOPIC_WEIGHT>
521.311438

> <PUBCHEM_TOTAL_CHARGE>
0

> <PUBCHEM_HEAVY_ATOM_COUNT>
38

> <PUBCHEM_ATOM_DEF_STEREO_COUNT>
1

> <PUBCHEM_ATOM_UDEF_STEREO_COUNT>
0

> <PUBCHEM_BOND_DEF_STEREO_COUNT>
0

> <PUBCHEM_BOND_UDEF_STEREO_COUNT>
0

> <PUBCHEM_ISOTOPIC_ATOM_COUNT>
0

> <PUBCHEM_COMPONENT_COUNT>
1

> <PUBCHEM_CACTVS_TAUTO_COUNT>
-1

> <PUBCHEM_COORDINATE_TYPE>
1
5
255

> <PUBCHEM_BONDANNOTATIONS>
16  18  6
17  20  8
20  27  8
32  34  8
32  36  8
33  35  8
33  37  8
34  35  8
36  37  8
6  17  8
6  29  8
9  27  8
9  29  8

$$$$
51371303
  -OEChem-02182015172D

 49 52  0     0  0  0  0  0  0999 V2000
    3.3660    3.5311    0.0000 F   0  0  0  0  0  0  0  0  0  0  0  0
    2.0000    3.1651    0.0000 F   0  0  0  0  0  0  0  0  0  0  0  0
    2.3660    1.7990    0.0000 F   0  0  0  0  0  0  0  0  0  0  0  0
    8.4939    0.7990    0.0000 N   0  0  0  0  0  0  0  0  0  0  0  0
    9.4939   -0.9330    0.0000 N   0  0  0  0  0  0  0  0  0  0  0  0
    6.4103    2.4698    0.0000 N   0  0  0  0  0  0  0  0  0  0  0  0
    6.4103    0.8603    0.0000 N   0  0  0  0  0  0  0  0  0  0  0  0
    9.4939   -2.6651    0.0000 N   0  0  0  0  0  0  0  0  0  0  0  0
   10.9939   -3.5311    0.0000 N   0  0  0  0  0  0  0  0  0  0  0  0
    7.9939   -0.0670    0.0000 C   0  0  0  0  0  0  0  0  0  0  0  0
    9.4939    0.7990    0.0000 C   0  0  0  0  0  0  0  0  0  0  0  0
    8.4939   -0.9330    0.0000 C   0  0  0  0  0  0  0  0  0  0  0  0
    9.9939   -0.0670    0.0000 C   0  0  0  0  0  0  0  0  0  0  0  0
    7.9939    1.6651    0.0000 C   0  0  0  0  0  0  0  0  0  0  0  0
    9.9939   -1.7990    0.0000 C   0  0  0  0  0  0  0  0  0  0  0  0
    6.9939    1.6651    0.0000 C   0  0  0  0  0  0  0  0  0  0  0  0
   10.9939   -1.7990    0.0000 C   0  0  0  0  0  0  0  0  0  0  0  0
    5.4641    2.1651    0.0000 C   0  0  0  0  0  0  0  0  0  0  0  0
    5.4641    1.1651    0.0000 C   0  0  0  0  0  0  0  0  0  0  0  0
   11.4939   -0.9330    0.0000 C   0  0  0  0  0  0  0  0  0  0  0  0
   11.4939   -2.6651    0.0000 C   0  0  0  0  0  0  0  0  0  0  0  0
    4.5981    2.6651    0.0000 C   0  0  0  0  0  0  0  0  0  0  0  0
    4.5981    0.6651    0.0000 C   0  0  0  0  0  0  0  0  0  0  0  0
    3.7320    2.1651    0.0000 C   0  0  0  0  0  0  0  0  0  0  0  0
   12.4939   -0.9330    0.0000 C   0  0  0  0  0  0  0  0  0  0  0  0
    9.9939   -3.5311    0.0000 C   0  0  0  0  0  0  0  0  0  0  0  0
    3.7320    1.1651    0.0000 C   0  0  0  0  0  0  0  0  0  0  0  0
    2.8660    2.6651    0.0000 C   0  0  0  0  0  0  0  0  0  0  0  0
    7.5190    0.3315    0.0000 H   0  0  0  0  0  0  0  0  0  0  0  0
    7.5190   -0.4655    0.0000 H   0  0  0  0  0  0  0  0  0  0  0  0
   10.0765    1.0111    0.0000 H   0  0  0  0  0  0  0  0  0  0  0  0
    9.3863    1.4096    0.0000 H   0  0  0  0  0  0  0  0  0  0  0  0
    7.9113   -1.1451    0.0000 H   0  0  0  0  0  0  0  0  0  0  0  0
    8.6016   -1.5436    0.0000 H   0  0  0  0  0  0  0  0  0  0  0  0
   10.4689   -0.4655    0.0000 H   0  0  0  0  0  0  0  0  0  0  0  0
   10.4689    0.3315    0.0000 H   0  0  0  0  0  0  0  0  0  0  0  0
    8.5765    1.8771    0.0000 H   0  0  0  0  0  0  0  0  0  0  0  0
    7.8863    2.2756    0.0000 H   0  0  0  0  0  0  0  0  0  0  0  0
    6.6029    3.0591    0.0000 H   0  0  0  0  0  0  0  0  0  0  0  0
   11.6016   -0.3224    0.0000 H   0  0  0  0  0  0  0  0  0  0  0  0
   10.9113   -0.7210    0.0000 H   0  0  0  0  0  0  0  0  0  0  0  0
   12.1139   -2.6651    0.0000 H   0  0  0  0  0  0  0  0  0  0  0  0
    4.5981    3.2851    0.0000 H   0  0  0  0  0  0  0  0  0  0  0  0
    4.5981    0.0451    0.0000 H   0  0  0  0  0  0  0  0  0  0  0  0
   12.4939   -1.5530    0.0000 H   0  0  0  0  0  0  0  0  0  0  0  0
   13.1139   -0.9330    0.0000 H   0  0  0  0  0  0  0  0  0  0  0  0
   12.4939   -0.3130    0.0000 H   0  0  0  0  0  0  0  0  0  0  0  0
    9.6839   -4.0680    0.0000 H   0  0  0  0  0  0  0  0  0  0  0  0
    3.1951    0.8551    0.0000 H   0  0  0  0  0  0  0  0  0  0  0  0
  1 28  1  0  0  0  0
  2 28  1  0  0  0  0
  3 28  1  0  0  0  0
  4 10  1  0  0  0  0
  4 11  1  0  0  0  0
  4 14  1  0  0  0  0
  5 12  1  0  0  0  0
  5 13  1  0  0  0  0
  5 15  1  0  0  0  0
  6 16  1  0  0  0  0
  6 18  1  0  0  0  0
  6 39  1  0  0  0  0
  7 16  2  0  0  0  0
  7 19  1  0  0  0  0
  8 15  2  0  0  0  0
  8 26  1  0  0  0  0
  9 21  1  0  0  0  0
  9 26  2  0  0  0  0
 10 12  1  0  0  0  0
 10 29  1  0  0  0  0
 10 30  1  0  0  0  0
 11 13  1  0  0  0  0
 11 31  1  0  0  0  0
 11 32  1  0  0  0  0
 12 33  1  0  0  0  0
 12 34  1  0  0  0  0
 13 35  1  0  0  0  0
 13 36  1  0  0  0  0
 14 16  1  0  0  0  0
 14 37  1  0  0  0  0
 14 38  1  0  0  0  0
 15 17  1  0  0  0  0
 17 20  1  0  0  0  0
 17 21  2  0  0  0  0
 18 19  2  0  0  0  0
 18 22  1  0  0  0  0
 19 23  1  0  0  0  0
 20 25  1  0  0  0  0
 20 40  1  0  0  0  0
 20 41  1  0  0  0  0
 21 42  1  0  0  0  0
 22 24  2  0  0  0  0
 22 43  1  0  0  0  0
 23 27  2  0  0  0  0
 23 44  1  0  0  0  0
 24 27  1  0  0  0  0
 24 28  1  0  0  0  0
 25 45  1  0  0  0  0
 25 46  1  0  0  0  0
 25 47  1  0  0  0  0
 26 48  1  0  0  0  0
 27 49  1  0  0  0  0
M  END
> <PUBCHEM_COMPOUND_CID>
51371303

> <PUBCHEM_COMPOUND_CANONICALIZED>
1

> <PUBCHEM_CACTVS_COMPLEXITY>
510

> <PUBCHEM_CACTVS_HBOND_ACCEPTOR>
8

> <PUBCHEM_CACTVS_HBOND_DONOR>
1

> <PUBCHEM_CACTVS_ROTATABLE_BOND>
4

> <PUBCHEM_CACTVS_SUBSKEYS>
AAADceB7gYAAAAAAAAAAAAAAAAAAAWAAAAA8WIAAAAAAAFgB/AAAHQAQAAAADAjBHxQ/8LfJkACgAzZnZACCgC2xEqAJ2SA4dJiIaKLA2dGUJAhokALIyCcQgAAOCAAAQAAAACAQAACAAAAAQAAAAAAAAA==

> <PUBCHEM_IUPAC_OPENEYE_NAME>
2-[[4-(5-ethylpyrimidin-4-yl)piperazin-1-yl]methyl]-6-(trifluoromethyl)-1H-benzimidazole

> <PUBCHEM_IUPAC_CAS_NAME>
2-[[4-(5-ethyl-4-pyrimidinyl)-1-piperazinyl]methyl]-6-(trifluoromethyl)-1H-benzimidazole

> <PUBCHEM_IUPAC_NAME_MARKUP>
2-[[4-(5-ethylpyrimidin-4-yl)piperazin-1-yl]methyl]-6-(trifluoromethyl)-1<I>H</I>-benzimidazole

> <PUBCHEM_IUPAC_NAME>
2-[[4-(5-ethylpyrimidin-4-yl)piperazin-1-yl]methyl]-6-(trifluoromethyl)-1H-benzimidazole

> <PUBCHEM_IUPAC_SYSTEMATIC_NAME>
2-[[4-(5-ethylpyrimidin-4-yl)piperazin-1-yl]methyl]-6-(trifluoromethyl)-1H-benzimidazole

> <PUBCHEM_IUPAC_TRADITIONAL_NAME>
2-[[4-(5-ethylpyrimidin-4-yl)piperazino]methyl]-6-(trifluoromethyl)-1H-benzimidazole

> <PUBCHEM_IUPAC_INCHI>
InChI=1S/C19H21F3N6/c1-2-13-10-23-12-24-18(13)28-7-5-27(6-8-28)11-17-25-15-4-3-14(19(20,21)22)9-16(15)26-17/h3-4,9-10,12H,2,5-8,11H2,1H3,(H,25,26)

> <PUBCHEM_IUPAC_INCHIKEY>
FBLPQCAQRNSVHB-UHFFFAOYSA-N

> <PUBCHEM_XLOGP3_AA>
3.2

> <PUBCHEM_EXACT_MASS>
390.177979

> <PUBCHEM_MOLECULAR_FORMULA>
C19H21F3N6

> <PUBCHEM_MOLECULAR_WEIGHT>
390.4

> <PUBCHEM_OPENEYE_CAN_SMILES>
CCC1=CN=CN=C1N2CCN(CC2)CC3=NC4=C(N3)C=C(C=C4)C(F)(F)F

> <PUBCHEM_OPENEYE_ISO_SMILES>
CCC1=CN=CN=C1N2CCN(CC2)CC3=NC4=C(N3)C=C(C=C4)C(F)(F)F

> <PUBCHEM_CACTVS_TPSA>
60.9

> <PUBCHEM_MONOISOTOPIC_WEIGHT>
390.177979

> <PUBCHEM_TOTAL_CHARGE>
0

> <PUBCHEM_HEAVY_ATOM_COUNT>
28

> <PUBCHEM_ATOM_DEF_STEREO_COUNT>
0

> <PUBCHEM_ATOM_UDEF_STEREO_COUNT>
0

> <PUBCHEM_BOND_DEF_STEREO_COUNT>
0

> <PUBCHEM_BOND_UDEF_STEREO_COUNT>
0

> <PUBCHEM_ISOTOPIC_ATOM_COUNT>
0

> <PUBCHEM_COMPONENT_COUNT>
1

> <PUBCHEM_CACTVS_TAUTO_COUNT>
-1

> <PUBCHEM_COORDINATE_TYPE>
1
5
255

> <PUBCHEM_BONDANNOTATIONS>
15  17  8
17  21  8
18  19  8
18  22  8
19  23  8
22  24  8
23  27  8
24  27  8
6  16  8
6  18  8
7  16  8
7  19  8
8  15  8
8  26  8
9  21  8
9  26  8

$$$$
5310940
  -OEChem-02182015172D

 31 29  0     1  0  0  0  0  0999 V2000
    3.1296    1.2078    0.0000 Pt  0  0  0  0  0  0  0  0  0  0  0  0
    2.8206    2.1588    0.0000 O   0  0  0  0  0  0  0  0  0  0  0  0
    2.3206    0.6200    0.0000 O   0  0  0  0  0  0  0  0  0  0  0  0
    1.2328    2.9679    0.0000 O   0  0  0  0  0  0  0  0  0  0  0  0
    0.5605    0.8988    0.0000 O   0  0  0  0  0  0  0  0  0  0  0  0
    0.5369    7.4428    0.0000 N   0  0  0  0  0  0  0  0  0  0  0  0
    2.2690    8.4428    0.0000 N   0  0  0  0  0  0  0  0  0  0  0  0
    1.4030    6.9428    0.0000 C   0  0  1  0  0  0  0  0  0  0  0  0
    2.2690    7.4428    0.0000 C   0  0  1  0  0  0  0  0  0  0  0  0
    1.4030    5.9428    0.0000 C   0  0  0  0  0  0  0  0  0  0  0  0
    3.1350    6.9428    0.0000 C   0  0  0  0  0  0  0  0  0  0  0  0
    2.2690    5.4428    0.0000 C   0  0  0  0  0  0  0  0  0  0  0  0
    3.1350    5.9428    0.0000 C   0  0  0  0  0  0  0  0  0  0  0  0
    1.8206    2.1588    0.0000 C   0  0  0  0  0  0  0  0  0  0  0  0
    1.5116    1.2078    0.0000 C   0  0  0  0  0  0  0  0  0  0  0  0
    0.8660    6.6328    0.0000 H   0  0  0  0  0  0  0  0  0  0  0  0
    2.8059    7.7528    0.0000 H   0  0  0  0  0  0  0  0  0  0  0  0
    0.7924    6.0505    0.0000 H   0  0  0  0  0  0  0  0  0  0  0  0
    1.1909    5.3602    0.0000 H   0  0  0  0  0  0  0  0  0  0  0  0
    3.7456    6.8351    0.0000 H   0  0  0  0  0  0  0  0  0  0  0  0
    3.3471    7.5254    0.0000 H   0  0  0  0  0  0  0  0  0  0  0  0
    1.8705    4.9679    0.0000 H   0  0  0  0  0  0  0  0  0  0  0  0
    2.6675    4.9679    0.0000 H   0  0  0  0  0  0  0  0  0  0  0  0
    3.3471    5.3602    0.0000 H   0  0  0  0  0  0  0  0  0  0  0  0
    3.7456    6.0505    0.0000 H   0  0  0  0  0  0  0  0  0  0  0  0
    0.0000    7.1328    0.0000 H   0  0  0  0  0  0  0  0  0  0  0  0
    0.5369    8.0628    0.0000 H   0  0  0  0  0  0  0  0  0  0  0  0
    2.8059    8.7528    0.0000 H   0  0  0  0  0  0  0  0  0  0  0  0
    1.7320    8.7528    0.0000 H   0  0  0  0  0  0  0  0  0  0  0  0
    3.1850    2.6604    0.0000 H   0  0  0  0  0  0  0  0  0  0  0  0
    2.3206    0.0000    0.0000 H   0  0  0  0  0  0  0  0  0  0  0  0
  2 14  1  0  0  0  0
  2 30  1  0  0  0  0
  3 15  1  0  0  0  0
  3 31  1  0  0  0  0
  4 14  2  0  0  0  0
  5 15  2  0  0  0  0
  8  6  1  1  0  0  0
  6 26  1  0  0  0  0
  6 27  1  0  0  0  0
  9  7  1  6  0  0  0
  7 28  1  0  0  0  0
  7 29  1  0  0  0  0
  8  9  1  0  0  0  0
  8 10  1  0  0  0  0
  8 16  1  0  0  0  0
  9 11  1  0  0  0  0
  9 17  1  0  0  0  0
 10 12  1  0  0  0  0
 10 18  1  0  0  0  0
 10 19  1  0  0  0  0
 11 13  1  0  0  0  0
 11 20  1  0  0  0  0
 11 21  1  0  0  0  0
 12 13  1  0  0  0  0
 12 22  1  0  0  0  0
 12 23  1  0  0  0  0
 13 24  1  0  0  0  0
 13 25  1  0  0  0  0
 14 15  1  0  0  0  0
M  END
> <PUBCHEM_COMPOUND_CID>
5310940

> <PUBCHEM_COMPOUND_CANONICALIZED>
1

> <PUBCHEM_CACTVS_COMPLEXITY>
139

> <PUBCHEM_CACTVS_HBOND_ACCEPTOR>
6

> <PUBCHEM_CACTVS_HBOND_DONOR>
4

> <PUBCHEM_CACTVS_ROTATABLE_BOND>
0

> <PUBCHEM_CACTVS_SUBSKEYS>
AAADceBzOAAAAAAAAAAABAAAAAAAASAAAAAwAAAAAAAAAAAAAAAAHgAQCAAACCjBgAQACABAAgAIAACQCAIAAAAAAAAAAIBAAAABQAIAgAAAAAAAEAABAAEQAAAAAAAAAAAAAAAAAAAAAAAAQAAAAAAAAA==

> <PUBCHEM_IUPAC_OPENEYE_NAME>
(1R,2R)-cyclohexane-1,2-diamine;oxalic acid;platinum

> <PUBCHEM_IUPAC_CAS_NAME>
(1R,2R)-cyclohexane-1,2-diamine;oxalic acid;platinum

> <PUBCHEM_IUPAC_NAME_MARKUP>
(1<I>R</I>,2<I>R</I>)-cyclohexane-1,2-diamine;oxalic acid;platinum

> <PUBCHEM_IUPAC_NAME>
(1R,2R)-cyclohexane-1,2-diamine;oxalic acid;platinum

> <PUBCHEM_IUPAC_SYSTEMATIC_NAME>
(1R,2R)-cyclohexane-1,2-diamine;ethanedioic acid;platinum

> <PUBCHEM_IUPAC_TRADITIONAL_NAME>
[(1R,2R)-2-aminocyclohexyl]amine;oxalic acid;platinum

> <PUBCHEM_IUPAC_INCHI>
InChI=1S/C6H14N2.C2H2O4.Pt/c7-5-3-1-2-4-6(5)8;3-1(4)2(5)6;/h5-6H,1-4,7-8H2;(H,3,4)(H,5,6);/t5-,6-;;/m1../s1

> <PUBCHEM_IUPAC_INCHIKEY>
OGAPHRMCCQCJOE-BNTLRKBRSA-N

> <PUBCHEM_EXACT_MASS>
399.075801

> <PUBCHEM_MOLECULAR_FORMULA>
C8H16N2O4Pt

> <PUBCHEM_MOLECULAR_WEIGHT>
399.3

> <PUBCHEM_OPENEYE_CAN_SMILES>
C1CCC(C(C1)N)N.C(=O)(C(=O)O)O.[Pt]

> <PUBCHEM_OPENEYE_ISO_SMILES>
C1CC[C@H]([C@@H](C1)N)N.C(=O)(C(=O)O)O.[Pt]

> <PUBCHEM_CACTVS_TPSA>
127

> <PUBCHEM_MONOISOTOPIC_WEIGHT>
399.075801

> <PUBCHEM_TOTAL_CHARGE>
0

> <PUBCHEM_HEAVY_ATOM_COUNT>
15

> <PUBCHEM_ATOM_DEF_STEREO_COUNT>
2

> <PUBCHEM_ATOM_UDEF_STEREO_COUNT>
0

> <PUBCHEM_BOND_DEF_STEREO_COUNT>
0

> <PUBCHEM_BOND_UDEF_STEREO_COUNT>
0

> <PUBCHEM_ISOTOPIC_ATOM_COUNT>
0

> <PUBCHEM_COMPONENT_COUNT>
3

> <PUBCHEM_CACTVS_TAUTO_COUNT>
-1

> <PUBCHEM_NONSTANDARDBOND>
1  2  6
1  3  6

> <PUBCHEM_COORDINATE_TYPE>
1
5
255

> <PUBCHEM_BONDANNOTATIONS>
8  6  5
9  7  6

$$$$
9858940
  -OEChem-02182015172D

 46 49  0     0  0  0  0  0  0999 V2000
    7.9472    0.1406    0.0000 O   0  0  0  0  0  0  0  0  0  0  0  0
    7.9472   -1.4688    0.0000 O   0  0  0  0  0  0  0  0  0  0  0  0
    2.8203    0.6723    0.0000 N   0  0  0  0  0  0  0  0  0  0  0  0
    4.2984    1.3304    0.0000 N   0  0  0  0  0  0  0  0  0  0  0  0
    4.0246   -1.7181    0.0000 N   0  0  0  0  0  0  0  0  0  0  0  0
    2.9136    2.4519    0.0000 C   0  0  0  0  0  0  0  0  0  0  0  0
    3.3203    1.5383    0.0000 C   0  0  0  0  0  0  0  0  0  0  0  0
    2.5068    3.3654    0.0000 C   0  0  0  0  0  0  0  0  0  0  0  0
    3.8271    2.8586    0.0000 C   0  0  0  0  0  0  0  0  0  0  0  0
    2.0000    2.0451    0.0000 C   0  0  0  0  0  0  0  0  0  0  0  0
    3.4894   -0.0709    0.0000 C   0  0  0  0  0  0  0  0  0  0  0  0
    4.4030    0.3359    0.0000 C   0  0  0  0  0  0  0  0  0  0  0  0
    5.2690   -0.1641    0.0000 C   0  0  0  0  0  0  0  0  0  0  0  0
    3.2815   -1.0490    0.0000 C   0  0  0  0  0  0  0  0  0  0  0  0
    6.1350    0.3359    0.0000 C   0  0  0  0  0  0  0  0  0  0  0  0
    5.2690   -1.1641    0.0000 C   0  0  0  0  0  0  0  0  0  0  0  0
    7.0010   -0.1641    0.0000 C   0  0  0  0  0  0  0  0  0  0  0  0
    7.0010   -1.1641    0.0000 C   0  0  0  0  0  0  0  0  0  0  0  0
    6.1350   -1.6641    0.0000 C   0  0  0  0  0  0  0  0  0  0  0  0
    2.3304   -1.3580    0.0000 C   0  0  0  0  0  0  0  0  0  0  0  0
    3.8167   -2.6963    0.0000 C   0  0  0  0  0  0  0  0  0  0  0  0
    8.5309   -0.6641    0.0000 C   0  0  0  0  0  0  0  0  0  0  0  0
    2.1225   -2.3362    0.0000 C   0  0  0  0  0  0  0  0  0  0  0  0
    2.8657   -3.0053    0.0000 C   0  0  0  0  0  0  0  0  0  0  0  0
    4.5599   -3.3654    0.0000 C   0  0  0  0  0  0  0  0  0  0  0  0
    3.0732    3.6176    0.0000 H   0  0  0  0  0  0  0  0  0  0  0  0
    2.2546    3.9318    0.0000 H   0  0  0  0  0  0  0  0  0  0  0  0
    1.9404    3.1132    0.0000 H   0  0  0  0  0  0  0  0  0  0  0  0
    4.0793    2.2922    0.0000 H   0  0  0  0  0  0  0  0  0  0  0  0
    4.3935    3.1108    0.0000 H   0  0  0  0  0  0  0  0  0  0  0  0
    3.5749    3.4250    0.0000 H   0  0  0  0  0  0  0  0  0  0  0  0
    1.7478    2.6115    0.0000 H   0  0  0  0  0  0  0  0  0  0  0  0
    1.4336    1.7930    0.0000 H   0  0  0  0  0  0  0  0  0  0  0  0
    2.2522    1.4787    0.0000 H   0  0  0  0  0  0  0  0  0  0  0  0
    2.2037    0.6075    0.0000 H   0  0  0  0  0  0  0  0  0  0  0  0
    6.1350    0.9559    0.0000 H   0  0  0  0  0  0  0  0  0  0  0  0
    4.7320   -1.4741    0.0000 H   0  0  0  0  0  0  0  0  0  0  0  0
    6.1350   -2.2841    0.0000 H   0  0  0  0  0  0  0  0  0  0  0  0
    1.8697   -0.9432    0.0000 H   0  0  0  0  0  0  0  0  0  0  0  0
    8.9917   -1.0788    0.0000 H   0  0  0  0  0  0  0  0  0  0  0  0
    8.9917   -0.2494    0.0000 H   0  0  0  0  0  0  0  0  0  0  0  0
    1.5329   -2.5278    0.0000 H   0  0  0  0  0  0  0  0  0  0  0  0
    2.7368   -3.6118    0.0000 H   0  0  0  0  0  0  0  0  0  0  0  0
    4.1450   -3.8262    0.0000 H   0  0  0  0  0  0  0  0  0  0  0  0
    5.0206   -3.7803    0.0000 H   0  0  0  0  0  0  0  0  0  0  0  0
    4.9747   -2.9047    0.0000 H   0  0  0  0  0  0  0  0  0  0  0  0
  1 17  1  0  0  0  0
  1 22  1  0  0  0  0
  2 18  1  0  0  0  0
  2 22  1  0  0  0  0
  3  7  1  0  0  0  0
  3 11  1  0  0  0  0
  3 35  1  0  0  0  0
  4  7  2  0  0  0  0
  4 12  1  0  0  0  0
  5 14  1  0  0  0  0
  5 21  2  0  0  0  0
  6  7  1  0  0  0  0
  6  8  1  0  0  0  0
  6  9  1  0  0  0  0
  6 10  1  0  0  0  0
  8 26  1  0  0  0  0
  8 27  1  0  0  0  0
  8 28  1  0  0  0  0
  9 29  1  0  0  0  0
  9 30  1  0  0  0  0
  9 31  1  0  0  0  0
 10 32  1  0  0  0  0
 10 33  1  0  0  0  0
 10 34  1  0  0  0  0
 11 12  2  0  0  0  0
 11 14  1  0  0  0  0
 12 13  1  0  0  0  0
 13 15  2  0  0  0  0
 13 16  1  0  0  0  0
 14 20  2  0  0  0  0
 15 17  1  0  0  0  0
 15 36  1  0  0  0  0
 16 19  2  0  0  0  0
 16 37  1  0  0  0  0
 17 18  2  0  0  0  0
 18 19  1  0  0  0  0
 19 38  1  0  0  0  0
 20 23  1  0  0  0  0
 20 39  1  0  0  0  0
 21 24  1  0  0  0  0
 21 25  1  0  0  0  0
 22 40  1  0  0  0  0
 22 41  1  0  0  0  0
 23 24  2  0  0  0  0
 23 42  1  0  0  0  0
 24 43  1  0  0  0  0
 25 44  1  0  0  0  0
 25 45  1  0  0  0  0
 25 46  1  0  0  0  0
M  END
> <PUBCHEM_COMPOUND_CID>
9858940

> <PUBCHEM_COMPOUND_CANONICALIZED>
1

> <PUBCHEM_CACTVS_COMPLEXITY>
466

> <PUBCHEM_CACTVS_HBOND_ACCEPTOR>
4

> <PUBCHEM_CACTVS_HBOND_DONOR>
1

> <PUBCHEM_CACTVS_ROTATABLE_BOND>
3

> <PUBCHEM_CACTVS_SUBSKEYS>
AAADceB7MAAAAAAAAAAAAAAAAAAAAWJAAAA8QAAAAAAAAEgB8AAAHgAQAAAADgyBnwMznpbJlACgAyZiZACCiC2hMqAJmSA2/JidbuLE+Zu0MCpswBPO6Cew0PMOIAABAAAAQABAAAIAAACAAAAAAAAAAA==

> <PUBCHEM_IUPAC_OPENEYE_NAME>
2-[4-(1,3-benzodioxol-5-yl)-2-tert-butyl-1H-imidazol-5-yl]-6-methyl-pyridine

> <PUBCHEM_IUPAC_CAS_NAME>
2-[4-(1,3-benzodioxol-5-yl)-2-tert-butyl-1H-imidazol-5-yl]-6-methylpyridine

> <PUBCHEM_IUPAC_NAME_MARKUP>
2-[4-(1,3-benzodioxol-5-yl)-2-<I>tert</I>-butyl-1<I>H</I>-imidazol-5-yl]-6-methylpyridine

> <PUBCHEM_IUPAC_NAME>
2-[4-(1,3-benzodioxol-5-yl)-2-tert-butyl-1H-imidazol-5-yl]-6-methylpyridine

> <PUBCHEM_IUPAC_SYSTEMATIC_NAME>
2-[4-(1,3-benzodioxol-5-yl)-2-tert-butyl-1H-imidazol-5-yl]-6-methyl-pyridine

> <PUBCHEM_IUPAC_TRADITIONAL_NAME>
2-[4-(1,3-benzodioxol-5-yl)-2-tert-butyl-1H-imidazol-5-yl]-6-methyl-pyridine

> <PUBCHEM_IUPAC_INCHI>
InChI=1S/C20H21N3O2/c1-12-6-5-7-14(21-12)18-17(22-19(23-18)20(2,3)4)13-8-9-15-16(10-13)25-11-24-15/h5-10H,11H2,1-4H3,(H,22,23)

> <PUBCHEM_IUPAC_INCHIKEY>
WGZOTBUYUFBEPZ-UHFFFAOYSA-N

> <PUBCHEM_XLOGP3_AA>
4.3

> <PUBCHEM_EXACT_MASS>
335.163377

> <PUBCHEM_MOLECULAR_FORMULA>
C20H21N3O2

> <PUBCHEM_MOLECULAR_WEIGHT>
335.4

> <PUBCHEM_OPENEYE_CAN_SMILES>
CC1=NC(=CC=C1)C2=C(N=C(N2)C(C)(C)C)C3=CC4=C(C=C3)OCO4

> <PUBCHEM_OPENEYE_ISO_SMILES>
CC1=NC(=CC=C1)C2=C(N=C(N2)C(C)(C)C)C3=CC4=C(C=C3)OCO4

> <PUBCHEM_CACTVS_TPSA>
60

> <PUBCHEM_MONOISOTOPIC_WEIGHT>
335.163377

> <PUBCHEM_TOTAL_CHARGE>
0

> <PUBCHEM_HEAVY_ATOM_COUNT>
25

> <PUBCHEM_ATOM_DEF_STEREO_COUNT>
0

> <PUBCHEM_ATOM_UDEF_STEREO_COUNT>
0

> <PUBCHEM_BOND_DEF_STEREO_COUNT>
0

> <PUBCHEM_BOND_UDEF_STEREO_COUNT>
0

> <PUBCHEM_ISOTOPIC_ATOM_COUNT>
0

> <PUBCHEM_COMPONENT_COUNT>
1

> <PUBCHEM_CACTVS_TAUTO_COUNT>
-1

> <PUBCHEM_COORDINATE_TYPE>
1
5
255

> <PUBCHEM_BONDANNOTATIONS>
11  12  8
13  15  8
13  16  8
14  20  8
15  17  8
16  19  8
17  18  8
18  19  8
20  23  8
21  24  8
23  24  8
3  11  8
3  7  8
4  12  8
4  7  8
5  14  8
5  21  8

$$$$
2984337
  -OEChem-02182015172D

 61 66  0     0  0  0  0  0  0999 V2000
    5.5161    0.7494    0.0000 S   0  0  0  0  0  0  0  0  0  0  0  0
    5.5161   -2.2506    0.0000 O   0  0  0  0  0  0  0  0  0  0  0  0
    2.0520   -2.2506    0.0000 O   0  0  0  0  0  0  0  0  0  0  0  0
   10.1294    1.1011    0.0000 O   0  0  0  0  0  0  0  0  0  0  0  0
    3.7841   -2.2506    0.0000 N   0  0  0  0  0  0  0  0  0  0  0  0
    6.3251    2.3372    0.0000 N   0  0  0  0  0  0  0  0  0  0  0  0
    4.7071    2.3372    0.0000 N   0  0  0  0  0  0  0  0  0  0  0  0
    5.0161    3.2883    0.0000 N   0  0  0  0  0  0  0  0  0  0  0  0
    7.7795    5.7153    0.0000 N   0  0  0  0  0  0  0  0  0  0  0  0
    3.7841   -4.2506    0.0000 C   0  0  0  0  0  0  0  0  0  0  0  0
    3.7841   -1.2506    0.0000 C   0  0  0  0  0  0  0  0  0  0  0  0
    4.6501   -3.7506    0.0000 C   0  0  0  0  0  0  0  0  0  0  0  0
    2.9180   -3.7506    0.0000 C   0  0  0  0  0  0  0  0  0  0  0  0
    4.6501   -0.7506    0.0000 C   0  0  0  0  0  0  0  0  0  0  0  0
    4.6501   -2.7506    0.0000 C   0  0  0  0  0  0  0  0  0  0  0  0
    2.9180   -2.7506    0.0000 C   0  0  0  0  0  0  0  0  0  0  0  0
    3.8001   -5.2921    0.0000 C   0  0  0  0  0  0  0  0  0  0  0  0
    4.6501    0.2494    0.0000 C   0  0  0  0  0  0  0  0  0  0  0  0
    5.5601   -4.2574    0.0000 C   0  0  0  0  0  0  0  0  0  0  0  0
    2.0080   -4.2574    0.0000 C   0  0  0  0  0  0  0  0  0  0  0  0
    4.6660   -5.8198    0.0000 C   0  0  0  0  0  0  0  0  0  0  0  0
    2.9021   -5.8198    0.0000 C   0  0  0  0  0  0  0  0  0  0  0  0
    5.5681   -5.2990    0.0000 C   0  0  0  0  0  0  0  0  0  0  0  0
    2.0000   -5.2990    0.0000 C   0  0  0  0  0  0  0  0  0  0  0  0
    5.5161    1.7494    0.0000 C   0  0  0  0  0  0  0  0  0  0  0  0
    6.0161    3.2883    0.0000 C   0  0  0  0  0  0  0  0  0  0  0  0
    7.2762    2.0282    0.0000 C   0  0  0  0  0  0  0  0  0  0  0  0
    6.6039    4.0973    0.0000 C   0  0  0  0  0  0  0  0  0  0  0  0
    8.0193    2.6973    0.0000 C   0  0  0  0  0  0  0  0  0  0  0  0
    7.4841    1.0500    0.0000 C   0  0  0  0  0  0  0  0  0  0  0  0
    8.9704    2.3883    0.0000 C   0  0  0  0  0  0  0  0  0  0  0  0
    8.4352    0.7410    0.0000 C   0  0  0  0  0  0  0  0  0  0  0  0
    9.1783    1.4102    0.0000 C   0  0  0  0  0  0  0  0  0  0  0  0
    6.1972    5.0108    0.0000 C   0  0  0  0  0  0  0  0  0  0  0  0
    7.5984    3.9928    0.0000 C   0  0  0  0  0  0  0  0  0  0  0  0
    6.7849    5.8198    0.0000 C   0  0  0  0  0  0  0  0  0  0  0  0
    8.1862    4.8018    0.0000 C   0  0  0  0  0  0  0  0  0  0  0  0
   10.8725    1.7703    0.0000 C   0  0  0  0  0  0  0  0  0  0  0  0
    3.5720   -0.6680    0.0000 H   0  0  0  0  0  0  0  0  0  0  0  0
    3.1735   -1.3582    0.0000 H   0  0  0  0  0  0  0  0  0  0  0  0
    4.8621   -1.3332    0.0000 H   0  0  0  0  0  0  0  0  0  0  0  0
    5.2607   -0.6429    0.0000 H   0  0  0  0  0  0  0  0  0  0  0  0
    4.4380    0.8320    0.0000 H   0  0  0  0  0  0  0  0  0  0  0  0
    4.0395    0.1418    0.0000 H   0  0  0  0  0  0  0  0  0  0  0  0
    6.0934   -3.9412    0.0000 H   0  0  0  0  0  0  0  0  0  0  0  0
    1.4747   -3.9412    0.0000 H   0  0  0  0  0  0  0  0  0  0  0  0
    4.6587   -6.4398    0.0000 H   0  0  0  0  0  0  0  0  0  0  0  0
    2.9045   -6.4398    0.0000 H   0  0  0  0  0  0  0  0  0  0  0  0
    6.1062   -5.6070    0.0000 H   0  0  0  0  0  0  0  0  0  0  0  0
    1.4619   -5.6070    0.0000 H   0  0  0  0  0  0  0  0  0  0  0  0
    7.8904    3.3038    0.0000 H   0  0  0  0  0  0  0  0  0  0  0  0
    7.0233    0.6352    0.0000 H   0  0  0  0  0  0  0  0  0  0  0  0
    9.4311    2.8032    0.0000 H   0  0  0  0  0  0  0  0  0  0  0  0
    8.5640    0.1346    0.0000 H   0  0  0  0  0  0  0  0  0  0  0  0
    5.5806    5.0756    0.0000 H   0  0  0  0  0  0  0  0  0  0  0  0
    7.8506    3.4264    0.0000 H   0  0  0  0  0  0  0  0  0  0  0  0
    6.5328    6.3862    0.0000 H   0  0  0  0  0  0  0  0  0  0  0  0
    8.8028    4.7370    0.0000 H   0  0  0  0  0  0  0  0  0  0  0  0
   11.2874    1.3095    0.0000 H   0  0  0  0  0  0  0  0  0  0  0  0
   11.3332    2.1851    0.0000 H   0  0  0  0  0  0  0  0  0  0  0  0
   10.4576    2.2310    0.0000 H   0  0  0  0  0  0  0  0  0  0  0  0
  1 18  1  0  0  0  0
  1 25  1  0  0  0  0
  2 15  2  0  0  0  0
  3 16  2  0  0  0  0
  4 33  1  0  0  0  0
  4 38  1  0  0  0  0
  5 11  1  0  0  0  0
  5 15  1  0  0  0  0
  5 16  1  0  0  0  0
  6 25  1  0  0  0  0
  6 26  1  0  0  0  0
  6 27  1  0  0  0  0
  7  8  1  0  0  0  0
  7 25  2  0  0  0  0
  8 26  2  0  0  0  0
  9 36  2  0  0  0  0
  9 37  1  0  0  0  0
 10 12  1  0  0  0  0
 10 13  1  0  0  0  0
 10 17  2  0  0  0  0
 11 14  1  0  0  0  0
 11 39  1  0  0  0  0
 11 40  1  0  0  0  0
 12 15  1  0  0  0  0
 12 19  2  0  0  0  0
 13 16  1  0  0  0  0
 13 20  2  0  0  0  0
 14 18  1  0  0  0  0
 14 41  1  0  0  0  0
 14 42  1  0  0  0  0
 17 21  1  0  0  0  0
 17 22  1  0  0  0  0
 18 43  1  0  0  0  0
 18 44  1  0  0  0  0
 19 23  1  0  0  0  0
 19 45  1  0  0  0  0
 20 24  1  0  0  0  0
 20 46  1  0  0  0  0
 21 23  2  0  0  0  0
 21 47  1  0  0  0  0
 22 24  2  0  0  0  0
 22 48  1  0  0  0  0
 23 49  1  0  0  0  0
 24 50  1  0  0  0  0
 26 28  1  0  0  0  0
 27 29  2  0  0  0  0
 27 30  1  0  0  0  0
 28 34  2  0  0  0  0
 28 35  1  0  0  0  0
 29 31  1  0  0  0  0
 29 51  1  0  0  0  0
 30 32  2  0  0  0  0
 30 52  1  0  0  0  0
 31 33  2  0  0  0  0
 31 53  1  0  0  0  0
 32 33  1  0  0  0  0
 32 54  1  0  0  0  0
 34 36  1  0  0  0  0
 34 55  1  0  0  0  0
 35 37  2  0  0  0  0
 35 56  1  0  0  0  0
 36 57  1  0  0  0  0
 37 58  1  0  0  0  0
 38 59  1  0  0  0  0
 38 60  1  0  0  0  0
 38 61  1  0  0  0  0
M  END
> <PUBCHEM_COMPOUND_CID>
2984337

> <PUBCHEM_COMPOUND_CANONICALIZED>
1

> <PUBCHEM_CACTVS_COMPLEXITY>
803

> <PUBCHEM_CACTVS_HBOND_ACCEPTOR>
7

> <PUBCHEM_CACTVS_HBOND_DONOR>
0

> <PUBCHEM_CACTVS_ROTATABLE_BOND>
8

> <PUBCHEM_CACTVS_SUBSKEYS>
AAADceB7sABAAAAAAAAAAAAAAAAAAWAAAAA8eMECAAAAAADx9AAAHgQIAAAADAzF2wa/1tcMFAiqAjd3dACS2Ct1IrAd2CE+bNiMLvLkvZuEMShkzjPI6ae4y8COgEACAAAQAAAAgAQAACAAAAAAAAAAAA==

> <PUBCHEM_IUPAC_OPENEYE_NAME>
2-[3-[[4-(4-methoxyphenyl)-5-(4-pyridyl)-1,2,4-triazol-3-yl]sulfanyl]propyl]benzo[de]isoquinoline-1,3-dione

> <PUBCHEM_IUPAC_CAS_NAME>
2-[3-[[4-(4-methoxyphenyl)-5-pyridin-4-yl-1,2,4-triazol-3-yl]thio]propyl]benzo[de]isoquinoline-1,3-dione

> <PUBCHEM_IUPAC_NAME_MARKUP>
2-[3-[[4-(4-methoxyphenyl)-5-pyridin-4-yl-1,2,4-triazol-3-yl]sulfanyl]propyl]benzo[de]isoquinoline-1,3-dione

> <PUBCHEM_IUPAC_NAME>
2-[3-[[4-(4-methoxyphenyl)-5-pyridin-4-yl-1,2,4-triazol-3-yl]sulfanyl]propyl]benzo[de]isoquinoline-1,3-dione

> <PUBCHEM_IUPAC_SYSTEMATIC_NAME>
2-[3-[[4-(4-methoxyphenyl)-5-pyridin-4-yl-1,2,4-triazol-3-yl]sulfanyl]propyl]benzo[de]isoquinoline-1,3-dione

> <PUBCHEM_IUPAC_TRADITIONAL_NAME>
2-[3-[[4-(4-methoxyphenyl)-5-(4-pyridyl)-1,2,4-triazol-3-yl]thio]propyl]benzo[de]isoquinoline-1,3-quinone

> <PUBCHEM_IUPAC_INCHI>
InChI=1S/C29H23N5O3S/c1-37-22-11-9-21(10-12-22)34-26(20-13-15-30-16-14-20)31-32-29(34)38-18-4-17-33-27(35)23-7-2-5-19-6-3-8-24(25(19)23)28(33)36/h2-3,5-16H,4,17-18H2,1H3

> <PUBCHEM_IUPAC_INCHIKEY>
RNUXIZKXJOGYQP-UHFFFAOYSA-N

> <PUBCHEM_XLOGP3_AA>
4.8

> <PUBCHEM_EXACT_MASS>
521.152161

> <PUBCHEM_MOLECULAR_FORMULA>
C29H23N5O3S

> <PUBCHEM_MOLECULAR_WEIGHT>
521.6

> <PUBCHEM_OPENEYE_CAN_SMILES>
COC1=CC=C(C=C1)N2C(=NN=C2SCCCN3C(=O)C4=CC=CC5=C4C(=CC=C5)C3=O)C6=CC=NC=C6

> <PUBCHEM_OPENEYE_ISO_SMILES>
COC1=CC=C(C=C1)N2C(=NN=C2SCCCN3C(=O)C4=CC=CC5=C4C(=CC=C5)C3=O)C6=CC=NC=C6

> <PUBCHEM_CACTVS_TPSA>
116

> <PUBCHEM_MONOISOTOPIC_WEIGHT>
521.152161

> <PUBCHEM_TOTAL_CHARGE>
0

> <PUBCHEM_HEAVY_ATOM_COUNT>
38

> <PUBCHEM_ATOM_DEF_STEREO_COUNT>
0

> <PUBCHEM_ATOM_UDEF_STEREO_COUNT>
0

> <PUBCHEM_BOND_DEF_STEREO_COUNT>
0

> <PUBCHEM_BOND_UDEF_STEREO_COUNT>
0

> <PUBCHEM_ISOTOPIC_ATOM_COUNT>
0

> <PUBCHEM_COMPONENT_COUNT>
1

> <PUBCHEM_CACTVS_TAUTO_COUNT>
-1

> <PUBCHEM_COORDINATE_TYPE>
1
5
255

> <PUBCHEM_BONDANNOTATIONS>
10  12  8
10  13  8
10  17  8
12  19  8
13  20  8
17  21  8
17  22  8
19  23  8
20  24  8
21  23  8
22  24  8
27  29  8
27  30  8
28  34  8
28  35  8
29  31  8
30  32  8
31  33  8
32  33  8
34  36  8
35  37  8
6  25  8
6  26  8
7  25  8
7  8  8
8  26  8
9  36  8
9  37  8

$$$$
9927531
  -OEChem-02182015172D

 42 44  0     0  0  0  0  0  0999 V2000
    5.4641   -1.5600    0.0000 O   0  0  0  0  0  0  0  0  0  0  0  0
    2.0000    1.4400    0.0000 O   0  0  0  0  0  0  0  0  0  0  0  0
    3.7320    1.4400    0.0000 O   0  0  0  0  0  0  0  0  0  0  0  0
    4.5981   -0.0600    0.0000 N   0  0  0  0  0  0  0  0  0  0  0  0
    8.0622   -0.0600    0.0000 C   0  0  0  0  0  0  0  0  0  0  0  0
    9.7942   -0.0600    0.0000 C   0  0  0  0  0  0  0  0  0  0  0  0
    9.7942    0.9400    0.0000 C   0  0  0  0  0  0  0  0  0  0  0  0
    8.9282   -0.5600    0.0000 C   0  0  0  0  0  0  0  0  0  0  0  0
    7.1962   -0.5600    0.0000 C   0  0  0  0  0  0  0  0  0  0  0  0
    8.0622    0.9400    0.0000 C   0  0  0  0  0  0  0  0  0  0  0  0
    8.9282    1.4400    0.0000 C   0  0  0  0  0  0  0  0  0  0  0  0
   10.6882   -0.5947    0.0000 C   0  0  0  0  0  0  0  0  0  0  0  0
   10.6882    1.4747    0.0000 C   0  0  0  0  0  0  0  0  0  0  0  0
    6.3301   -0.0600    0.0000 C   0  0  0  0  0  0  0  0  0  0  0  0
    7.1962   -1.5600    0.0000 C   0  0  0  0  0  0  0  0  0  0  0  0
   11.5942   -0.0808    0.0000 C   0  0  0  0  0  0  0  0  0  0  0  0
   11.5942    0.9608    0.0000 C   0  0  0  0  0  0  0  0  0  0  0  0
    3.7320   -0.5600    0.0000 C   0  0  0  0  0  0  0  0  0  0  0  0
    5.4641   -0.5600    0.0000 C   0  0  0  0  0  0  0  0  0  0  0  0
    2.8660   -0.0600    0.0000 C   0  0  0  0  0  0  0  0  0  0  0  0
    3.7320   -1.5600    0.0000 C   0  0  0  0  0  0  0  0  0  0  0  0
    2.0000   -0.5600    0.0000 C   0  0  0  0  0  0  0  0  0  0  0  0
    2.8660   -2.0600    0.0000 C   0  0  0  0  0  0  0  0  0  0  0  0
    2.0000   -1.5600    0.0000 C   0  0  0  0  0  0  0  0  0  0  0  0
    2.8660    0.9400    0.0000 C   0  0  0  0  0  0  0  0  0  0  0  0
    8.9282   -1.1800    0.0000 H   0  0  0  0  0  0  0  0  0  0  0  0
    7.5252    1.2500    0.0000 H   0  0  0  0  0  0  0  0  0  0  0  0
    8.9282    2.0600    0.0000 H   0  0  0  0  0  0  0  0  0  0  0  0
   10.6810   -1.2146    0.0000 H   0  0  0  0  0  0  0  0  0  0  0  0
   10.6810    2.0946    0.0000 H   0  0  0  0  0  0  0  0  0  0  0  0
    6.3301    0.5600    0.0000 H   0  0  0  0  0  0  0  0  0  0  0  0
    6.5762   -1.5600    0.0000 H   0  0  0  0  0  0  0  0  0  0  0  0
    7.1962   -2.1800    0.0000 H   0  0  0  0  0  0  0  0  0  0  0  0
    7.8162   -1.5600    0.0000 H   0  0  0  0  0  0  0  0  0  0  0  0
   12.1300   -0.3929    0.0000 H   0  0  0  0  0  0  0  0  0  0  0  0
   12.1300    1.2729    0.0000 H   0  0  0  0  0  0  0  0  0  0  0  0
    4.5981    0.5600    0.0000 H   0  0  0  0  0  0  0  0  0  0  0  0
    4.2690   -1.8700    0.0000 H   0  0  0  0  0  0  0  0  0  0  0  0
    1.4631   -0.2500    0.0000 H   0  0  0  0  0  0  0  0  0  0  0  0
    2.8660   -2.6800    0.0000 H   0  0  0  0  0  0  0  0  0  0  0  0
    1.4631   -1.8700    0.0000 H   0  0  0  0  0  0  0  0  0  0  0  0
    2.0000    2.0600    0.0000 H   0  0  0  0  0  0  0  0  0  0  0  0
  1 19  2  0  0  0  0
  2 25  1  0  0  0  0
  2 42  1  0  0  0  0
  3 25  2  0  0  0  0
  4 18  1  0  0  0  0
  4 19  1  0  0  0  0
  4 37  1  0  0  0  0
  5  8  2  0  0  0  0
  5  9  1  0  0  0  0
  5 10  1  0  0  0  0
  6  7  1  0  0  0  0
  6  8  1  0  0  0  0
  6 12  2  0  0  0  0
  7 11  1  0  0  0  0
  7 13  2  0  0  0  0
  8 26  1  0  0  0  0
  9 14  2  0  0  0  0
  9 15  1  0  0  0  0
 10 11  2  0  0  0  0
 10 27  1  0  0  0  0
 11 28  1  0  0  0  0
 12 16  1  0  0  0  0
 12 29  1  0  0  0  0
 13 17  1  0  0  0  0
 13 30  1  0  0  0  0
 14 19  1  0  0  0  0
 14 31  1  0  0  0  0
 15 32  1  0  0  0  0
 15 33  1  0  0  0  0
 15 34  1  0  0  0  0
 16 17  2  0  0  0  0
 16 35  1  0  0  0  0
 17 36  1  0  0  0  0
 18 20  1  0  0  0  0
 18 21  2  0  0  0  0
 20 22  2  0  0  0  0
 20 25  1  0  0  0  0
 21 23  1  0  0  0  0
 21 38  1  0  0  0  0
 22 24  1  0  0  0  0
 22 39  1  0  0  0  0
 23 24  2  0  0  0  0
 23 40  1  0  0  0  0
 24 41  1  0  0  0  0
M  END
> <PUBCHEM_COMPOUND_CID>
9927531

> <PUBCHEM_COMPOUND_CANONICALIZED>
1

> <PUBCHEM_CACTVS_COMPLEXITY>
527

> <PUBCHEM_CACTVS_HBOND_ACCEPTOR>
3

> <PUBCHEM_CACTVS_HBOND_DONOR>
2

> <PUBCHEM_CACTVS_ROTATABLE_BOND>
4

> <PUBCHEM_CACTVS_SUBSKEYS>
AAADceB6MAAAAAAAAAAAAAAAAAAAAAAAAAAwYMAAAAAAAADBVAAAHgAQCAAADAiBmAAyyMLAAgCIAiXSWACCAAAlAgAIiAEAbMgIJjrAlZGEcYhm1AHI2ceYyOCOwAACAAASAACAAAQAACQAAAAAAAAAAA==

> <PUBCHEM_IUPAC_OPENEYE_NAME>
2-[[(E)-3-(2-naphthyl)but-2-enoyl]amino]benzoic acid

> <PUBCHEM_IUPAC_CAS_NAME>
2-[[(E)-3-(2-naphthalenyl)-1-oxobut-2-enyl]amino]benzoic acid

> <PUBCHEM_IUPAC_NAME_MARKUP>
2-[[(<I>E</I>)-3-naphthalen-2-ylbut-2-enoyl]amino]benzoic acid

> <PUBCHEM_IUPAC_NAME>
2-[[(E)-3-naphthalen-2-ylbut-2-enoyl]amino]benzoic acid

> <PUBCHEM_IUPAC_SYSTEMATIC_NAME>
2-[[(E)-3-naphthalen-2-ylbut-2-enoyl]amino]benzoic acid

> <PUBCHEM_IUPAC_TRADITIONAL_NAME>
2-[[(E)-3-(2-naphthyl)but-2-enoyl]amino]benzoic acid

> <PUBCHEM_IUPAC_INCHI>
InChI=1S/C21H17NO3/c1-14(16-11-10-15-6-2-3-7-17(15)13-16)12-20(23)22-19-9-5-4-8-18(19)21(24)25/h2-13H,1H3,(H,22,23)(H,24,25)/b14-12+

> <PUBCHEM_IUPAC_INCHIKEY>
PGFQXGLPJUCTOI-WYMLVPIESA-N

> <PUBCHEM_XLOGP3_AA>
5.1

> <PUBCHEM_EXACT_MASS>
331.120843

> <PUBCHEM_MOLECULAR_FORMULA>
C21H17NO3

> <PUBCHEM_MOLECULAR_WEIGHT>
331.4

> <PUBCHEM_OPENEYE_CAN_SMILES>
CC(=CC(=O)NC1=CC=CC=C1C(=O)O)C2=CC3=CC=CC=C3C=C2

> <PUBCHEM_OPENEYE_ISO_SMILES>
C/C(=C\C(=O)NC1=CC=CC=C1C(=O)O)/C2=CC3=CC=CC=C3C=C2

> <PUBCHEM_CACTVS_TPSA>
66.4

> <PUBCHEM_MONOISOTOPIC_WEIGHT>
331.120843

> <PUBCHEM_TOTAL_CHARGE>
0

> <PUBCHEM_HEAVY_ATOM_COUNT>
25

> <PUBCHEM_ATOM_DEF_STEREO_COUNT>
0

> <PUBCHEM_ATOM_UDEF_STEREO_COUNT>
0

> <PUBCHEM_BOND_DEF_STEREO_COUNT>
1

> <PUBCHEM_BOND_UDEF_STEREO_COUNT>
0

> <PUBCHEM_ISOTOPIC_ATOM_COUNT>
0

> <PUBCHEM_COMPONENT_COUNT>
1

> <PUBCHEM_CACTVS_TAUTO_COUNT>
-1

> <PUBCHEM_COORDINATE_TYPE>
1
5
255

> <PUBCHEM_BONDANNOTATIONS>
10  11  8
12  16  8
13  17  8
16  17  8
18  20  8
18  21  8
20  22  8
21  23  8
22  24  8
23  24  8
5  10  8
5  8  8
6  12  8
6  7  8
6  8  8
7  11  8
7  13  8

$$$$
68947304
  -OEChem-02182015172D

 45 49  0     1  0  0  0  0  0999 V2000
    2.0000   -2.3116    0.0000 F   0  0  0  0  0  0  0  0  0  0  0  0
    7.2622    0.7126    0.0000 N   0  0  0  0  0  0  0  0  0  0  0  0
    5.5301   -2.2874    0.0000 N   0  0  0  0  0  0  0  0  0  0  0  0
    7.3912    2.8796    0.0000 N   0  0  0  0  0  0  0  0  0  0  0  0
    8.9942    0.7126    0.0000 N   0  0  0  0  0  0  0  0  0  0  0  0
    8.1282   -1.7874    0.0000 N   0  0  0  0  0  0  0  0  0  0  0  0
    8.7850    3.6844    0.0000 N   0  0  0  0  0  0  0  0  0  0  0  0
    9.8602    2.2126    0.0000 N   0  0  0  0  0  0  0  0  0  0  0  0
    7.2622   -0.2874    0.0000 C   0  0  2  0  0  0  0  0  0  0  0  0
    6.3961   -0.7874    0.0000 C   0  0  0  0  0  0  0  0  0  0  0  0
    6.3961   -1.7874    0.0000 C   0  0  0  0  0  0  0  0  0  0  0  0
    5.5301   -0.2874    0.0000 C   0  0  0  0  0  0  0  0  0  0  0  0
    8.1282   -0.7874    0.0000 C   0  0  0  0  0  0  0  0  0  0  0  0
    4.6641   -0.7874    0.0000 C   0  0  0  0  0  0  0  0  0  0  0  0
    4.6641   -1.7874    0.0000 C   0  0  0  0  0  0  0  0  0  0  0  0
    8.1282    1.2126    0.0000 C   0  0  0  0  0  0  0  0  0  0  0  0
    7.2622   -2.2874    0.0000 C   0  0  0  0  0  0  0  0  0  0  0  0
    8.1282    2.2126    0.0000 C   0  0  0  0  0  0  0  0  0  0  0  0
    3.7702   -0.2528    0.0000 C   0  0  0  0  0  0  0  0  0  0  0  0
    3.7702   -2.3221    0.0000 C   0  0  0  0  0  0  0  0  0  0  0  0
    8.9942    2.7126    0.0000 C   0  0  0  0  0  0  0  0  0  0  0  0
    2.8641   -0.7666    0.0000 C   0  0  0  0  0  0  0  0  0  0  0  0
    2.8641   -1.8082    0.0000 C   0  0  0  0  0  0  0  0  0  0  0  0
    7.2622   -3.2874    0.0000 C   0  0  0  0  0  0  0  0  0  0  0  0
    7.7963    3.7874    0.0000 C   0  0  0  0  0  0  0  0  0  0  0  0
    9.8602    1.2126    0.0000 C   0  0  0  0  0  0  0  0  0  0  0  0
    8.1282   -3.7874    0.0000 C   0  0  0  0  0  0  0  0  0  0  0  0
    8.9942   -2.2874    0.0000 C   0  0  0  0  0  0  0  0  0  0  0  0
    8.9942   -3.2874    0.0000 C   0  0  0  0  0  0  0  0  0  0  0  0
    6.7252    0.0226    0.0000 H   0  0  0  0  0  0  0  0  0  0  0  0
    6.7252    1.0226    0.0000 H   0  0  0  0  0  0  0  0  0  0  0  0
    5.5301    0.3326    0.0000 H   0  0  0  0  0  0  0  0  0  0  0  0
    7.8182   -1.3244    0.0000 H   0  0  0  0  0  0  0  0  0  0  0  0
    8.6651   -1.0974    0.0000 H   0  0  0  0  0  0  0  0  0  0  0  0
    8.4382   -0.2505    0.0000 H   0  0  0  0  0  0  0  0  0  0  0  0
    3.7773    0.3672    0.0000 H   0  0  0  0  0  0  0  0  0  0  0  0
    3.7773   -2.9421    0.0000 H   0  0  0  0  0  0  0  0  0  0  0  0
    2.3284   -0.4546    0.0000 H   0  0  0  0  0  0  0  0  0  0  0  0
    6.7845    2.7518    0.0000 H   0  0  0  0  0  0  0  0  0  0  0  0
    6.7252   -3.5974    0.0000 H   0  0  0  0  0  0  0  0  0  0  0  0
    7.4863    4.3244    0.0000 H   0  0  0  0  0  0  0  0  0  0  0  0
   10.3972    0.9026    0.0000 H   0  0  0  0  0  0  0  0  0  0  0  0
    8.1282   -4.4074    0.0000 H   0  0  0  0  0  0  0  0  0  0  0  0
    9.5312   -1.9774    0.0000 H   0  0  0  0  0  0  0  0  0  0  0  0
    9.5312   -3.5974    0.0000 H   0  0  0  0  0  0  0  0  0  0  0  0
  1 23  1  0  0  0  0
  9  2  1  1  0  0  0
  2 16  1  0  0  0  0
  2 31  1  0  0  0  0
  3 11  1  0  0  0  0
  3 15  2  0  0  0  0
  4 18  1  0  0  0  0
  4 25  1  0  0  0  0
  4 39  1  0  0  0  0
  5 16  2  0  0  0  0
  5 26  1  0  0  0  0
  6 17  1  0  0  0  0
  6 28  2  0  0  0  0
  7 21  1  0  0  0  0
  7 25  2  0  0  0  0
  8 21  1  0  0  0  0
  8 26  2  0  0  0  0
  9 10  1  0  0  0  0
  9 13  1  0  0  0  0
  9 30  1  0  0  0  0
 10 11  2  0  0  0  0
 10 12  1  0  0  0  0
 11 17  1  0  0  0  0
 12 14  2  0  0  0  0
 12 32  1  0  0  0  0
 13 33  1  0  0  0  0
 13 34  1  0  0  0  0
 13 35  1  0  0  0  0
 14 15  1  0  0  0  0
 14 19  1  0  0  0  0
 15 20  1  0  0  0  0
 16 18  1  0  0  0  0
 17 24  2  0  0  0  0
 18 21  2  0  0  0  0
 19 22  2  0  0  0  0
 19 36  1  0  0  0  0
 20 23  2  0  0  0  0
 20 37  1  0  0  0  0
 22 23  1  0  0  0  0
 22 38  1  0  0  0  0
 24 27  1  0  0  0  0
 24 40  1  0  0  0  0
 25 41  1  0  0  0  0
 26 42  1  0  0  0  0
 27 29  2  0  0  0  0
 27 43  1  0  0  0  0
 28 29  1  0  0  0  0
 28 44  1  0  0  0  0
 29 45  1  0  0  0  0
M  END
> <PUBCHEM_COMPOUND_CID>
68947304

> <PUBCHEM_COMPOUND_CANONICALIZED>
1

> <PUBCHEM_CACTVS_COMPLEXITY>
551

> <PUBCHEM_CACTVS_HBOND_ACCEPTOR>
7

> <PUBCHEM_CACTVS_HBOND_DONOR>
2

> <PUBCHEM_CACTVS_ROTATABLE_BOND>
4

> <PUBCHEM_CACTVS_SUBSKEYS>
AAADceB7gQAAAAAAAAAAAAAAAAAAAWAAAAA8WLEAAAAAAFix/gAAHQAQAAAADCjBHww/8P7JkACgAzZnZACCgC2xEqAJ2aA4dJiIaOLA2dGUJAhokALIyCcQgMAOAAAAAAACAAAAAAAAAAQAAAAAAAAAAA==

> <PUBCHEM_IUPAC_OPENEYE_NAME>
N-[(1S)-1-[7-fluoro-2-(2-pyridyl)-3-quinolyl]ethyl]-7H-purin-6-amine

> <PUBCHEM_IUPAC_CAS_NAME>
N-[(1S)-1-[7-fluoro-2-(2-pyridinyl)-3-quinolinyl]ethyl]-7H-purin-6-amine

> <PUBCHEM_IUPAC_NAME_MARKUP>
<I>N</I>-[(1<I>S</I>)-1-(7-fluoro-2-pyridin-2-ylquinolin-3-yl)ethyl]-7<I>H</I>-purin-6-amine

> <PUBCHEM_IUPAC_NAME>
N-[(1S)-1-(7-fluoro-2-pyridin-2-ylquinolin-3-yl)ethyl]-7H-purin-6-amine

> <PUBCHEM_IUPAC_SYSTEMATIC_NAME>
N-[(1S)-1-(7-fluoranyl-2-pyridin-2-yl-quinolin-3-yl)ethyl]-7H-purin-6-amine

> <PUBCHEM_IUPAC_TRADITIONAL_NAME>
[(1S)-1-[7-fluoro-2-(2-pyridyl)-3-quinolyl]ethyl]-(7H-purin-6-yl)amine

> <PUBCHEM_IUPAC_INCHI>
InChI=1S/C21H16FN7/c1-12(28-21-19-20(25-10-24-19)26-11-27-21)15-8-13-5-6-14(22)9-17(13)29-18(15)16-4-2-3-7-23-16/h2-12H,1H3,(H2,24,25,26,27,28)/t12-/m0/s1

> <PUBCHEM_IUPAC_INCHIKEY>
KWRYMZHCQIOOEB-LBPRGKRZSA-N

> <PUBCHEM_XLOGP3_AA>
3.3

> <PUBCHEM_EXACT_MASS>
385.145122

> <PUBCHEM_MOLECULAR_FORMULA>
C21H16FN7

> <PUBCHEM_MOLECULAR_WEIGHT>
385.4

> <PUBCHEM_OPENEYE_CAN_SMILES>
CC(C1=C(N=C2C=C(C=CC2=C1)F)C3=CC=CC=N3)NC4=NC=NC5=C4NC=N5

> <PUBCHEM_OPENEYE_ISO_SMILES>
C[C@@H](C1=C(N=C2C=C(C=CC2=C1)F)C3=CC=CC=N3)NC4=NC=NC5=C4NC=N5

> <PUBCHEM_CACTVS_TPSA>
92.3

> <PUBCHEM_MONOISOTOPIC_WEIGHT>
385.145122

> <PUBCHEM_TOTAL_CHARGE>
0

> <PUBCHEM_HEAVY_ATOM_COUNT>
29

> <PUBCHEM_ATOM_DEF_STEREO_COUNT>
1

> <PUBCHEM_ATOM_UDEF_STEREO_COUNT>
0

> <PUBCHEM_BOND_DEF_STEREO_COUNT>
0

> <PUBCHEM_BOND_UDEF_STEREO_COUNT>
0

> <PUBCHEM_ISOTOPIC_ATOM_COUNT>
0

> <PUBCHEM_COMPONENT_COUNT>
1

> <PUBCHEM_CACTVS_TAUTO_COUNT>
-1

> <PUBCHEM_COORDINATE_TYPE>
1
5
255

> <PUBCHEM_BONDANNOTATIONS>
10  11  8
10  12  8
12  14  8
14  15  8
14  19  8
15  20  8
16  18  8
17  24  8
18  21  8
19  22  8
9  2  5
20  23  8
22  23  8
24  27  8
27  29  8
28  29  8
3  11  8
3  15  8
4  18  8
4  25  8
5  16  8
5  26  8
6  17  8
6  28  8
7  21  8
7  25  8
8  21  8
8  26  8

$$$$
5384616
  -OEChem-02182015172D

 20 20  0     0  0  0  0  0  0999 V2000
    2.8660    0.2500    0.0000 N   0  0  0  0  0  0  0  0  0  0  0  0
    3.7321    1.7500    0.0000 N   0  0  0  0  0  0  0  0  0  0  0  0
    4.5981    0.2500    0.0000 N   0  4  0  0  0  0  0  0  0  0  0  0
    5.4641    2.7500    0.0000 N   0  0  0  0  0  0  0  0  0  0  0  0
    6.3301    1.2500    0.0000 N   0  0  0  0  0  0  0  0  0  0  0  0
    2.8660   -0.7500    0.0000 C   0  0  0  0  0  0  0  0  0  0  0  0
    2.0000   -1.2500    0.0000 C   0  0  0  0  0  0  0  0  0  0  0  0
    3.7321   -1.2500    0.0000 C   0  0  0  0  0  0  0  0  0  0  0  0
    2.0000   -2.2500    0.0000 C   0  0  0  0  0  0  0  0  0  0  0  0
    3.7321   -2.2500    0.0000 C   0  0  0  0  0  0  0  0  0  0  0  0
    2.8660   -2.7500    0.0000 C   0  0  0  0  0  0  0  0  0  0  0  0
    3.7321    0.7500    0.0000 C   0  0  0  0  0  0  0  0  0  0  0  0
    4.5981    2.2500    0.0000 C   0  0  0  0  0  0  0  0  0  0  0  0
    5.4641    0.7500    0.0000 C   0  0  0  0  0  0  0  0  0  0  0  0
    1.4631   -0.9400    0.0000 H   0  0  0  0  0  0  0  0  0  0  0  0
    4.2690   -0.9400    0.0000 H   0  0  0  0  0  0  0  0  0  0  0  0
    1.4631   -2.5600    0.0000 H   0  0  0  0  0  0  0  0  0  0  0  0
    4.2690   -2.5600    0.0000 H   0  0  0  0  0  0  0  0  0  0  0  0
    2.8660   -3.3700    0.0000 H   0  0  0  0  0  0  0  0  0  0  0  0
    3.1951    2.0600    0.0000 H   0  0  0  0  0  0  0  0  0  0  0  0
  1  6  1  0  0  0  0
  1 12  2  0  0  0  0
  2 12  1  0  0  0  0
  2 13  1  0  0  0  0
  2 20  1  0  0  0  0
  3 12  1  0  0  0  0
  3 14  1  0  0  0  0
  4 13  3  0  0  0  0
  5 14  3  0  0  0  0
  6  7  2  0  0  0  0
  6  8  1  0  0  0  0
  7  9  1  0  0  0  0
  7 15  1  0  0  0  0
  8 10  2  0  0  0  0
  8 16  1  0  0  0  0
  9 11  2  0  0  0  0
  9 17  1  0  0  0  0
 10 11  1  0  0  0  0
 10 18  1  0  0  0  0
 11 19  1  0  0  0  0
M  RAD  1   3   2
M  END
> <PUBCHEM_COMPOUND_CID>
5384616

> <PUBCHEM_COMPOUND_CANONICALIZED>
1

> <PUBCHEM_CACTVS_COMPLEXITY>
296

> <PUBCHEM_CACTVS_HBOND_ACCEPTOR>
3

> <PUBCHEM_CACTVS_HBOND_DONOR>
1

> <PUBCHEM_CACTVS_ROTATABLE_BOND>
3

> <PUBCHEM_CACTVS_SUBSKEYS>
AAADcYBzgAAAAAAAAAAAAAAAAAAAAAAAAAAwAAAAAAAAAAABAAAAHAAQAAAACAiBEAAxwILAAACwACRCZACCAAEgAgAJiAAAZIiIICKAkZGAIABogAAIyAcQAAAAAAAAAAAAAAAAAAAAAAAAAAAAAAAAAA==

> <PUBCHEM_IUPAC_OPENEYE_NAME>
N,N-dicyano-1-(cyano-lambda2-azanyl)-N'-phenyl-formamidine

> <PUBCHEM_IUPAC_CAS_NAME>
N,N-dicyano-1-(cyano-lambda2-azanyl)-N'-phenylmethanimidamide

> <PUBCHEM_IUPAC_NAME_MARKUP>
<I>N</I>,<I>N</I>-dicyano-1-(cyano-&lambda;<SUP>2</SUP>-azanyl)-<I>N</I>&apos;-phenylmethanimidamide

> <PUBCHEM_IUPAC_NAME>
N,N-dicyano-1-(cyano-lambda2-azanyl)-N'-phenylmethanimidamide

> <PUBCHEM_IUPAC_SYSTEMATIC_NAME>
N,N-dicyano-1-(cyano-lambda2-azanyl)-N'-phenyl-methanimidamide

> <PUBCHEM_IUPAC_TRADITIONAL_NAME>
N,N-dicyano-1-(cyano-lambda2-azanyl)-N'-phenyl-formamidine

> <PUBCHEM_IUPAC_INCHI>
InChI=1S/C9H6N5/c10-6-12-9(13-7-11)14-8-4-2-1-3-5-8/h1-5H,(H,12,14)

> <PUBCHEM_IUPAC_INCHIKEY>
XNRUSHCDWNKUDO-UHFFFAOYSA-N

> <PUBCHEM_XLOGP3_AA>
1.3

> <PUBCHEM_EXACT_MASS>
184.06232

> <PUBCHEM_MOLECULAR_FORMULA>
C9H6N5

> <PUBCHEM_MOLECULAR_WEIGHT>
184.18

> <PUBCHEM_OPENEYE_CAN_SMILES>
C1=CC=C(C=C1)N=C(NC#N)[N]C#N

> <PUBCHEM_OPENEYE_ISO_SMILES>
C1=CC=C(C=C1)N=C(NC#N)[N]C#N

> <PUBCHEM_CACTVS_TPSA>
73

> <PUBCHEM_MONOISOTOPIC_WEIGHT>
184.06232

> <PUBCHEM_TOTAL_CHARGE>
0

> <PUBCHEM_HEAVY_ATOM_COUNT>
14

> <PUBCHEM_ATOM_DEF_STEREO_COUNT>
0

> <PUBCHEM_ATOM_UDEF_STEREO_COUNT>
0

> <PUBCHEM_BOND_DEF_STEREO_COUNT>
0

> <PUBCHEM_BOND_UDEF_STEREO_COUNT>
0

> <PUBCHEM_ISOTOPIC_ATOM_COUNT>
0

> <PUBCHEM_COMPONENT_COUNT>
1

> <PUBCHEM_CACTVS_TAUTO_COUNT>
-1

> <PUBCHEM_COORDINATE_TYPE>
1
5
255

> <PUBCHEM_BONDANNOTATIONS>
10  11  8
6  7  8
6  8  8
7  9  8
8  10  8
9  11  8

$$$$
41867
  -OEChem-02182015172D

 68 72  0     1  0  0  0  0  0999 V2000
    6.0010   -0.9435    0.0000 O   0  0  0  0  0  0  0  0  0  0  0  0
    4.2690   -0.9435    0.0000 O   0  0  0  0  0  0  0  0  0  0  0  0
    7.2925   -3.8691    0.0000 O   0  0  0  0  0  0  0  0  0  0  0  0
    2.5369   -2.9435    0.0000 O   0  0  0  0  0  0  0  0  0  0  0  0
    6.8878    0.5637    0.0000 O   0  0  0  0  0  0  0  0  0  0  0  0
   10.3748   -1.3961    0.0000 O   0  0  0  0  0  0  0  0  0  0  0  0
    7.8058   -4.7273    0.0000 O   0  0  0  0  0  0  0  0  0  0  0  0
    9.8056   -4.6965    0.0000 O   0  0  0  0  0  0  0  0  0  0  0  0
    7.7143    2.1049    0.0000 O   0  0  0  0  0  0  0  0  0  0  0  0
   11.2616    0.1112    0.0000 O   0  0  0  0  0  0  0  0  0  0  0  0
    8.5769    3.7276    0.0000 O   0  0  0  0  0  0  0  0  0  0  0  0
    4.2690   -3.9435    0.0000 N   0  0  0  0  0  0  0  0  0  0  0  0
    6.8671   -1.4435    0.0000 C   0  0  1  0  0  0  0  0  0  0  0  0
    7.7791   -2.9954    0.0000 C   0  0  2  0  0  0  0  0  0  0  0  0
    6.8711   -2.4851    0.0000 C   0  0  0  0  0  0  0  0  0  0  0  0
    8.6710   -2.4574    0.0000 C   0  0  0  0  0  0  0  0  0  0  0  0
    7.7711   -0.9261    0.0000 C   0  0  0  0  0  0  0  0  0  0  0  0
    8.6429   -1.4161    0.0000 C   0  0  0  0  0  0  0  0  0  0  0  0
    5.1350   -1.4435    0.0000 C   0  0  2  0  0  0  0  0  0  0  0  0
    5.1350   -2.4435    0.0000 C   0  0  0  0  0  0  0  0  0  0  0  0
    4.2690   -2.9435    0.0000 C   0  0  1  0  0  0  0  0  0  0  0  0
    3.4030   -2.4435    0.0000 C   0  0  2  0  0  0  0  0  0  0  0  0
    3.4030   -1.4435    0.0000 C   0  0  2  0  0  0  0  0  0  0  0  0
    7.7596    0.0738    0.0000 C   0  0  0  0  0  0  0  0  0  0  0  0
    8.2924   -3.8537    0.0000 C   0  0  0  0  0  0  0  0  0  0  0  0
    9.5031   -0.9061    0.0000 C   0  0  0  0  0  0  0  0  0  0  0  0
    8.6198    0.5838    0.0000 C   0  0  0  0  0  0  0  0  0  0  0  0
    9.4915    0.0938    0.0000 C   0  0  0  0  0  0  0  0  0  0  0  0
    2.5369   -0.9435    0.0000 C   0  0  0  0  0  0  0  0  0  0  0  0
    9.2923   -3.8382    0.0000 C   0  0  0  0  0  0  0  0  0  0  0  0
    8.5917    1.6250    0.0000 C   0  0  0  0  0  0  0  0  0  0  0  0
   10.3956    0.6112    0.0000 C   0  0  0  0  0  0  0  0  0  0  0  0
    9.4835    2.1631    0.0000 C   0  0  0  0  0  0  0  0  0  0  0  0
   10.3916    1.6528    0.0000 C   0  0  0  0  0  0  0  0  0  0  0  0
    9.4543    3.2477    0.0000 C   0  0  0  0  0  0  0  0  0  0  0  0
   11.3333    2.1916    0.0000 C   0  0  0  0  0  0  0  0  0  0  0  0
   10.3833    3.8082    0.0000 C   0  0  0  0  0  0  0  0  0  0  0  0
   11.3291    3.2766    0.0000 C   0  0  0  0  0  0  0  0  0  0  0  0
    8.5538    4.7273    0.0000 C   0  0  0  0  0  0  0  0  0  0  0  0
    6.3307   -1.7545    0.0000 H   0  0  0  0  0  0  0  0  0  0  0  0
    6.2598   -2.3814    0.0000 H   0  0  0  0  0  0  0  0  0  0  0  0
    6.6643   -3.0696    0.0000 H   0  0  0  0  0  0  0  0  0  0  0  0
    8.8957   -3.0352    0.0000 H   0  0  0  0  0  0  0  0  0  0  0  0
    9.2788   -2.3348    0.0000 H   0  0  0  0  0  0  0  0  0  0  0  0
    5.6720   -1.7535    0.0000 H   0  0  0  0  0  0  0  0  0  0  0  0
    5.3471   -3.0261    0.0000 H   0  0  0  0  0  0  0  0  0  0  0  0
    5.7456   -2.3358    0.0000 H   0  0  0  0  0  0  0  0  0  0  0  0
    4.8059   -3.2535    0.0000 H   0  0  0  0  0  0  0  0  0  0  0  0
    3.4030   -3.0635    0.0000 H   0  0  0  0  0  0  0  0  0  0  0  0
    3.4030   -0.8235    0.0000 H   0  0  0  0  0  0  0  0  0  0  0  0
    6.6726   -3.8786    0.0000 H   0  0  0  0  0  0  0  0  0  0  0  0
    2.8469   -0.4065    0.0000 H   0  0  0  0  0  0  0  0  0  0  0  0
    2.0000   -0.6335    0.0000 H   0  0  0  0  0  0  0  0  0  0  0  0
    2.2269   -1.4804    0.0000 H   0  0  0  0  0  0  0  0  0  0  0  0
    3.7320   -4.2535    0.0000 H   0  0  0  0  0  0  0  0  0  0  0  0
    4.8059   -4.2535    0.0000 H   0  0  0  0  0  0  0  0  0  0  0  0
    9.8716   -3.6172    0.0000 H   0  0  0  0  0  0  0  0  0  0  0  0
    9.1752   -3.2294    0.0000 H   0  0  0  0  0  0  0  0  0  0  0  0
    2.0000   -2.6335    0.0000 H   0  0  0  0  0  0  0  0  0  0  0  0
    6.8807    1.1837    0.0000 H   0  0  0  0  0  0  0  0  0  0  0  0
   10.3820   -2.0160    0.0000 H   0  0  0  0  0  0  0  0  0  0  0  0
   11.8702    1.8816    0.0000 H   0  0  0  0  0  0  0  0  0  0  0  0
   10.4255   -4.6869    0.0000 H   0  0  0  0  0  0  0  0  0  0  0  0
   10.3737    4.4282    0.0000 H   0  0  0  0  0  0  0  0  0  0  0  0
   11.8636    3.5908    0.0000 H   0  0  0  0  0  0  0  0  0  0  0  0
    9.1736    4.7416    0.0000 H   0  0  0  0  0  0  0  0  0  0  0  0
    8.5394    5.3471    0.0000 H   0  0  0  0  0  0  0  0  0  0  0  0
    7.9340    4.7130    0.0000 H   0  0  0  0  0  0  0  0  0  0  0  0
 13  1  1  6  0  0  0
 19  1  1  1  0  0  0
  2 19  1  0  0  0  0
  2 23  1  0  0  0  0
 14  3  1  6  0  0  0
  3 51  1  0  0  0  0
 22  4  1  1  0  0  0
  4 59  1  0  0  0  0
  5 24  1  0  0  0  0
  5 60  1  0  0  0  0
  6 26  1  0  0  0  0
  6 61  1  0  0  0  0
  7 25  2  0  0  0  0
  8 30  1  0  0  0  0
  8 63  1  0  0  0  0
  9 31  2  0  0  0  0
 10 32  2  0  0  0  0
 11 35  1  0  0  0  0
 11 39  1  0  0  0  0
 21 12  1  6  0  0  0
 12 55  1  0  0  0  0
 12 56  1  0  0  0  0
 13 15  1  0  0  0  0
 13 17  1  0  0  0  0
 13 40  1  0  0  0  0
 14 15  1  0  0  0  0
 14 16  1  0  0  0  0
 14 25  1  0  0  0  0
 15 41  1  0  0  0  0
 15 42  1  0  0  0  0
 16 18  1  0  0  0  0
 16 43  1  0  0  0  0
 16 44  1  0  0  0  0
 17 18  2  0  0  0  0
 17 24  1  0  0  0  0
 18 26  1  0  0  0  0
 19 20  1  0  0  0  0
 19 45  1  0  0  0  0
 20 21  1  0  0  0  0
 20 46  1  0  0  0  0
 20 47  1  0  0  0  0
 21 22  1  0  0  0  0
 21 48  1  0  0  0  0
 22 23  1  0  0  0  0
 22 49  1  0  0  0  0
 23 29  1  6  0  0  0
 23 50  1  0  0  0  0
 24 27  2  0  0  0  0
 25 30  1  0  0  0  0
 26 28  2  0  0  0  0
 27 28  1  0  0  0  0
 27 31  1  0  0  0  0
 28 32  1  0  0  0  0
 29 52  1  0  0  0  0
 29 53  1  0  0  0  0
 29 54  1  0  0  0  0
 30 57  1  0  0  0  0
 30 58  1  0  0  0  0
 31 33  1  0  0  0  0
 32 34  1  0  0  0  0
 33 34  2  0  0  0  0
 33 35  1  0  0  0  0
 34 36  1  0  0  0  0
 35 37  2  0  0  0  0
 36 38  2  0  0  0  0
 36 62  1  0  0  0  0
 37 38  1  0  0  0  0
 37 64  1  0  0  0  0
 38 65  1  0  0  0  0
 39 66  1  0  0  0  0
 39 67  1  0  0  0  0
 39 68  1  0  0  0  0
M  END
> <PUBCHEM_COMPOUND_CID>
41867

> <PUBCHEM_COMPOUND_CANONICALIZED>
1

> <PUBCHEM_CACTVS_COMPLEXITY>
977

> <PUBCHEM_CACTVS_HBOND_ACCEPTOR>
12

> <PUBCHEM_CACTVS_HBOND_DONOR>
6

> <PUBCHEM_CACTVS_ROTATABLE_BOND>
5

> <PUBCHEM_CACTVS_SUBSKEYS>
AAADceB6PAAAAAAAAAAAAAAAAAAAAAAAAAA0YMGCAAAAAADBQAAAHgAQCAAADHzxmAcyDoBABgCIAqBSAAICCAAkIAAIiIFGCMgfNzaGtRqicWAn8BEPuYfL7PzOwQADAAAYAADCAAYQADAAAAAAAAAAAA==

> <PUBCHEM_IUPAC_OPENEYE_NAME>
(7S,9S)-7-[(2R,4S,5R,6S)-4-amino-5-hydroxy-6-methyl-tetrahydropyran-2-yl]oxy-6,9,11-trihydroxy-9-(2-hydroxyacetyl)-4-methoxy-8,10-dihydro-7H-tetracene-5,12-dione

> <PUBCHEM_IUPAC_CAS_NAME>
(7S,9S)-7-[[(2R,4S,5R,6S)-4-amino-5-hydroxy-6-methyl-2-oxanyl]oxy]-6,9,11-trihydroxy-9-(2-hydroxy-1-oxoethyl)-4-methoxy-8,10-dihydro-7H-tetracene-5,12-dione

> <PUBCHEM_IUPAC_NAME_MARKUP>
(7<I>S</I>,9<I>S</I>)-7-[(2<I>R</I>,4<I>S</I>,5<I>R</I>,6<I>S</I>)-4-amino-5-hydroxy-6-methyloxan-2-yl]oxy-6,9,11-trihydroxy-9-(2-hydroxyacetyl)-4-methoxy-8,10-dihydro-7<I>H</I>-tetracene-5,12-dione

> <PUBCHEM_IUPAC_NAME>
(7S,9S)-7-[(2R,4S,5R,6S)-4-amino-5-hydroxy-6-methyloxan-2-yl]oxy-6,9,11-trihydroxy-9-(2-hydroxyacetyl)-4-methoxy-8,10-dihydro-7H-tetracene-5,12-dione

> <PUBCHEM_IUPAC_SYSTEMATIC_NAME>
(7S,9S)-7-[(2R,4S,5R,6S)-4-azanyl-6-methyl-5-oxidanyl-oxan-2-yl]oxy-4-methoxy-6,9,11-tris(oxidanyl)-9-(2-oxidanylethanoyl)-8,10-dihydro-7H-tetracene-5,12-dione

> <PUBCHEM_IUPAC_TRADITIONAL_NAME>
(7S,9S)-7-[(2R,4S,5R,6S)-4-amino-5-hydroxy-6-methyl-tetrahydropyran-2-yl]oxy-9-glycoloyl-6,9,11-trihydroxy-4-methoxy-8,10-dihydro-7H-tetracene-5,12-quinone

> <PUBCHEM_IUPAC_INCHI>
InChI=1S/C27H29NO11/c1-10-22(31)13(28)6-17(38-10)39-15-8-27(36,16(30)9-29)7-12-19(15)26(35)21-20(24(12)33)23(32)11-4-3-5-14(37-2)18(11)25(21)34/h3-5,10,13,15,17,22,29,31,33,35-36H,6-9,28H2,1-2H3/t10-,13-,15-,17-,22-,27-/m0/s1

> <PUBCHEM_IUPAC_INCHIKEY>
AOJJSUZBOXZQNB-VTZDEGQISA-N

> <PUBCHEM_XLOGP3>
1.3

> <PUBCHEM_EXACT_MASS>
543.174061

> <PUBCHEM_MOLECULAR_FORMULA>
C27H29NO11

> <PUBCHEM_MOLECULAR_WEIGHT>
543.5

> <PUBCHEM_OPENEYE_CAN_SMILES>
CC1C(C(CC(O1)OC2CC(CC3=C2C(=C4C(=C3O)C(=O)C5=C(C4=O)C(=CC=C5)OC)O)(C(=O)CO)O)N)O

> <PUBCHEM_OPENEYE_ISO_SMILES>
C[C@H]1[C@@H]([C@H](C[C@@H](O1)O[C@H]2C[C@@](CC3=C2C(=C4C(=C3O)C(=O)C5=C(C4=O)C(=CC=C5)OC)O)(C(=O)CO)O)N)O

> <PUBCHEM_CACTVS_TPSA>
206

> <PUBCHEM_MONOISOTOPIC_WEIGHT>
543.174061

> <PUBCHEM_TOTAL_CHARGE>
0

> <PUBCHEM_HEAVY_ATOM_COUNT>
39

> <PUBCHEM_ATOM_DEF_STEREO_COUNT>
6

> <PUBCHEM_ATOM_UDEF_STEREO_COUNT>
0

> <PUBCHEM_BOND_DEF_STEREO_COUNT>
0

> <PUBCHEM_BOND_UDEF_STEREO_COUNT>
0

> <PUBCHEM_ISOTOPIC_ATOM_COUNT>
0

> <PUBCHEM_COMPONENT_COUNT>
1

> <PUBCHEM_CACTVS_TAUTO_COUNT>
-1

> <PUBCHEM_COORDINATE_TYPE>
1
5
255

> <PUBCHEM_BONDANNOTATIONS>
13  1  6
19  1  5
21  12  6
17  18  8
17  24  8
18  26  8
23  29  6
24  27  8
26  28  8
27  28  8
14  3  6
33  34  8
33  35  8
34  36  8
35  37  8
36  38  8
37  38  8
22  4  5

$$$$
24737642
  -OEChem-02182015172D

 68 71  0     1  0  0  0  0  0999 V2000
    4.8147    0.6741    0.0000 S   0  0  0  0  0  0  0  0  0  0  0  0
    2.8660   -5.0284    0.0000 F   0  0  0  0  0  0  0  0  0  0  0  0
    5.8194    1.7338    0.0000 O   0  0  0  0  0  0  0  0  0  0  0  0
    8.9999    3.4322    0.0000 O   0  0  0  0  0  0  0  0  0  0  0  0
    2.0000   -0.5284    0.0000 O   0  0  0  0  0  0  0  0  0  0  0  0
    6.9784    0.4467    0.0000 N   0  0  0  0  0  0  0  0  0  0  0  0
    8.4647    1.7849    0.0000 N   0  0  0  0  0  0  0  0  0  0  0  0
    4.6456   -0.9351    0.0000 N   0  0  0  0  0  0  0  0  0  0  0  0
   10.9020    2.8142    0.0000 N   0  0  0  0  0  0  0  0  0  0  0  0
    7.3057    3.0721    0.0000 C   0  0  0  0  0  0  0  0  0  0  0  0
    7.5136    2.0939    0.0000 C   0  0  1  0  0  0  0  0  0  0  0  0
    8.0488    3.7412    0.0000 C   0  0  0  0  0  0  0  0  0  0  0  0
    6.3546    3.3811    0.0000 C   0  0  0  0  0  0  0  0  0  0  0  0
    7.8409    4.7194    0.0000 C   0  0  0  0  0  0  0  0  0  0  0  0
    6.1467    4.3592    0.0000 C   0  0  0  0  0  0  0  0  0  0  0  0
    6.8899    5.0284    0.0000 C   0  0  0  0  0  0  0  0  0  0  0  0
    6.3092   -0.2965    0.0000 C   0  0  1  0  0  0  0  0  0  0  0  0
    6.7705    1.4248    0.0000 C   0  0  0  0  0  0  0  0  0  0  0  0
    7.8919    0.0399    0.0000 C   0  0  0  0  0  0  0  0  0  0  0  0
    6.8092   -1.1625    0.0000 C   0  0  0  0  0  0  0  0  0  0  0  0
    7.7874   -0.9546    0.0000 C   0  0  0  0  0  0  0  0  0  0  0  0
    5.3147   -0.1920    0.0000 C   0  0  0  0  0  0  0  0  0  0  0  0
    9.2078    2.4540    0.0000 C   0  0  0  0  0  0  0  0  0  0  0  0
   10.1589    2.1450    0.0000 C   0  0  2  0  0  0  0  0  0  0  0  0
    3.7320   -0.5284    0.0000 C   0  0  0  0  0  0  0  0  0  0  0  0
    3.8366    0.4661    0.0000 C   0  0  0  0  0  0  0  0  0  0  0  0
   10.3668    1.1669    0.0000 C   0  0  0  0  0  0  0  0  0  0  0  0
    2.8660   -1.0284    0.0000 C   0  0  0  0  0  0  0  0  0  0  0  0
   11.8531    2.5051    0.0000 C   0  0  0  0  0  0  0  0  0  0  0  0
    2.8660   -2.0284    0.0000 C   0  0  0  0  0  0  0  0  0  0  0  0
    3.7320   -2.5284    0.0000 C   0  0  0  0  0  0  0  0  0  0  0  0
    2.0000   -2.5284    0.0000 C   0  0  0  0  0  0  0  0  0  0  0  0
    3.7320   -3.5284    0.0000 C   0  0  0  0  0  0  0  0  0  0  0  0
    2.0000   -3.5284    0.0000 C   0  0  0  0  0  0  0  0  0  0  0  0
    2.8660   -4.0284    0.0000 C   0  0  0  0  0  0  0  0  0  0  0  0
    7.8954    2.8805    0.0000 H   0  0  0  0  0  0  0  0  0  0  0  0
    7.6425    1.4875    0.0000 H   0  0  0  0  0  0  0  0  0  0  0  0
    8.3774    3.2154    0.0000 H   0  0  0  0  0  0  0  0  0  0  0  0
    8.6237    3.9735    0.0000 H   0  0  0  0  0  0  0  0  0  0  0  0
    5.7350    3.3595    0.0000 H   0  0  0  0  0  0  0  0  0  0  0  0
    6.2684    2.7671    0.0000 H   0  0  0  0  0  0  0  0  0  0  0  0
    8.4606    4.7410    0.0000 H   0  0  0  0  0  0  0  0  0  0  0  0
    7.9272    5.3333    0.0000 H   0  0  0  0  0  0  0  0  0  0  0  0
    5.8182    4.8850    0.0000 H   0  0  0  0  0  0  0  0  0  0  0  0
    5.5719    4.1270    0.0000 H   0  0  0  0  0  0  0  0  0  0  0  0
    7.1810    5.5758    0.0000 H   0  0  0  0  0  0  0  0  0  0  0  0
    6.4013    5.4101    0.0000 H   0  0  0  0  0  0  0  0  0  0  0  0
    5.8463   -1.0094    0.0000 H   0  0  0  0  0  0  0  0  0  0  0  0
    8.4984   -0.0890    0.0000 H   0  0  0  0  0  0  0  0  0  0  0  0
    8.0835    0.6296    0.0000 H   0  0  0  0  0  0  0  0  0  0  0  0
    6.2428   -1.4147    0.0000 H   0  0  0  0  0  0  0  0  0  0  0  0
    7.0008   -1.7522    0.0000 H   0  0  0  0  0  0  0  0  0  0  0  0
    7.8522   -1.5712    0.0000 H   0  0  0  0  0  0  0  0  0  0  0  0
    8.4074   -0.9546    0.0000 H   0  0  0  0  0  0  0  0  0  0  0  0
    8.5936    1.1785    0.0000 H   0  0  0  0  0  0  0  0  0  0  0  0
   10.7485    1.9534    0.0000 H   0  0  0  0  0  0  0  0  0  0  0  0
    3.3758    0.8810    0.0000 H   0  0  0  0  0  0  0  0  0  0  0  0
    9.7603    1.0380    0.0000 H   0  0  0  0  0  0  0  0  0  0  0  0
   10.4957    0.5604    0.0000 H   0  0  0  0  0  0  0  0  0  0  0  0
   10.9732    1.2958    0.0000 H   0  0  0  0  0  0  0  0  0  0  0  0
   10.7731    3.4206    0.0000 H   0  0  0  0  0  0  0  0  0  0  0  0
   11.6615    1.9155    0.0000 H   0  0  0  0  0  0  0  0  0  0  0  0
   12.4427    2.3136    0.0000 H   0  0  0  0  0  0  0  0  0  0  0  0
   12.0447    3.0948    0.0000 H   0  0  0  0  0  0  0  0  0  0  0  0
    4.2690   -2.2184    0.0000 H   0  0  0  0  0  0  0  0  0  0  0  0
    1.4631   -2.2184    0.0000 H   0  0  0  0  0  0  0  0  0  0  0  0
    4.2690   -3.8384    0.0000 H   0  0  0  0  0  0  0  0  0  0  0  0
    1.4631   -3.8384    0.0000 H   0  0  0  0  0  0  0  0  0  0  0  0
  1 22  1  0  0  0  0
  1 26  1  0  0  0  0
  2 35  1  0  0  0  0
  3 18  2  0  0  0  0
  4 23  2  0  0  0  0
  5 28  2  0  0  0  0
  6 17  1  0  0  0  0
  6 18  1  0  0  0  0
  6 19  1  0  0  0  0
 11  7  1  6  0  0  0
  7 23  1  0  0  0  0
  7 55  1  0  0  0  0
  8 22  2  0  0  0  0
  8 25  1  0  0  0  0
 24  9  1  1  0  0  0
  9 29  1  0  0  0  0
  9 61  1  0  0  0  0
 10 11  1  0  0  0  0
 10 12  1  0  0  0  0
 10 13  1  0  0  0  0
 10 36  1  0  0  0  0
 11 18  1  0  0  0  0
 11 37  1  0  0  0  0
 12 14  1  0  0  0  0
 12 38  1  0  0  0  0
 12 39  1  0  0  0  0
 13 15  1  0  0  0  0
 13 40  1  0  0  0  0
 13 41  1  0  0  0  0
 14 16  1  0  0  0  0
 14 42  1  0  0  0  0
 14 43  1  0  0  0  0
 15 16  1  0  0  0  0
 15 44  1  0  0  0  0
 15 45  1  0  0  0  0
 16 46  1  0  0  0  0
 16 47  1  0  0  0  0
 17 20  1  0  0  0  0
 17 22  1  0  0  0  0
 17 48  1  6  0  0  0
 19 21  1  0  0  0  0
 19 49  1  0  0  0  0
 19 50  1  0  0  0  0
 20 21  1  0  0  0  0
 20 51  1  0  0  0  0
 20 52  1  0  0  0  0
 21 53  1  0  0  0  0
 21 54  1  0  0  0  0
 23 24  1  0  0  0  0
 24 27  1  0  0  0  0
 24 56  1  0  0  0  0
 25 26  2  0  0  0  0
 25 28  1  0  0  0  0
 26 57  1  0  0  0  0
 27 58  1  0  0  0  0
 27 59  1  0  0  0  0
 27 60  1  0  0  0  0
 28 30  1  0  0  0  0
 29 62  1  0  0  0  0
 29 63  1  0  0  0  0
 29 64  1  0  0  0  0
 30 31  2  0  0  0  0
 30 32  1  0  0  0  0
 31 33  1  0  0  0  0
 31 65  1  0  0  0  0
 32 34  2  0  0  0  0
 32 66  1  0  0  0  0
 33 35  2  0  0  0  0
 33 67  1  0  0  0  0
 34 35  1  0  0  0  0
 34 68  1  0  0  0  0
M  END
> <PUBCHEM_COMPOUND_CID>
24737642

> <PUBCHEM_COMPOUND_CANONICALIZED>
1

> <PUBCHEM_CACTVS_COMPLEXITY>
757

> <PUBCHEM_CACTVS_HBOND_ACCEPTOR>
7

> <PUBCHEM_CACTVS_HBOND_DONOR>
2

> <PUBCHEM_CACTVS_ROTATABLE_BOND>
8

> <PUBCHEM_CACTVS_SUBSKEYS>
AAADcfB7sQBAAAAAAAAAAAAAAAAAAWLAAAAwYAAAAAAAAAABwAAAHwQQAAAADSzF3gyygZPIEAisA6VyVAAC8KBnCjgIiJW4IMgIYDKglTGUIQAglgCoiYcYiICOAAAAAAAAAAAAAAAAAAAAAAAAAAAAAA==

> <PUBCHEM_IUPAC_OPENEYE_NAME>
(2S)-N-[(1S)-1-cyclohexyl-2-[(2S)-2-[4-(4-fluorobenzoyl)thiazol-2-yl]pyrrolidin-1-yl]-2-oxo-ethyl]-2-(methylamino)propanamide

> <PUBCHEM_IUPAC_CAS_NAME>
(2S)-N-[(1S)-1-cyclohexyl-2-[(2S)-2-[4-[(4-fluorophenyl)-oxomethyl]-2-thiazolyl]-1-pyrrolidinyl]-2-oxoethyl]-2-(methylamino)propanamide

> <PUBCHEM_IUPAC_NAME_MARKUP>
(2<I>S</I>)-<I>N</I>-[(1<I>S</I>)-1-cyclohexyl-2-[(2<I>S</I>)-2-[4-(4-fluorobenzoyl)-1,3-thiazol-2-yl]pyrrolidin-1-yl]-2-oxoethyl]-2-(methylamino)propanamide

> <PUBCHEM_IUPAC_NAME>
(2S)-N-[(1S)-1-cyclohexyl-2-[(2S)-2-[4-(4-fluorobenzoyl)-1,3-thiazol-2-yl]pyrrolidin-1-yl]-2-oxoethyl]-2-(methylamino)propanamide

> <PUBCHEM_IUPAC_SYSTEMATIC_NAME>
(2S)-N-[(1S)-1-cyclohexyl-2-[(2S)-2-[4-(4-fluorophenyl)carbonyl-1,3-thiazol-2-yl]pyrrolidin-1-yl]-2-oxidanylidene-ethyl]-2-(methylamino)propanamide

> <PUBCHEM_IUPAC_TRADITIONAL_NAME>
(2S)-N-[(1S)-1-cyclohexyl-2-[(2S)-2-[4-(4-fluorobenzoyl)thiazol-2-yl]pyrrolidino]-2-keto-ethyl]-2-(methylamino)propionamide

> <PUBCHEM_IUPAC_INCHI>
InChI=1S/C26H33FN4O3S/c1-16(28-2)24(33)30-22(17-7-4-3-5-8-17)26(34)31-14-6-9-21(31)25-29-20(15-35-25)23(32)18-10-12-19(27)13-11-18/h10-13,15-17,21-22,28H,3-9,14H2,1-2H3,(H,30,33)/t16-,21-,22-/m0/s1

> <PUBCHEM_IUPAC_INCHIKEY>
UFPFGVNKHCLJJO-SSKFGXFMSA-N

> <PUBCHEM_XLOGP3_AA>
4.3

> <PUBCHEM_EXACT_MASS>
500.22574

> <PUBCHEM_MOLECULAR_FORMULA>
C26H33FN4O3S

> <PUBCHEM_MOLECULAR_WEIGHT>
500.6

> <PUBCHEM_OPENEYE_CAN_SMILES>
CC(C(=O)NC(C1CCCCC1)C(=O)N2CCCC2C3=NC(=CS3)C(=O)C4=CC=C(C=C4)F)NC

> <PUBCHEM_OPENEYE_ISO_SMILES>
C[C@@H](C(=O)N[C@@H](C1CCCCC1)C(=O)N2CCC[C@H]2C3=NC(=CS3)C(=O)C4=CC=C(C=C4)F)NC

> <PUBCHEM_CACTVS_TPSA>
120

> <PUBCHEM_MONOISOTOPIC_WEIGHT>
500.22574

> <PUBCHEM_TOTAL_CHARGE>
0

> <PUBCHEM_HEAVY_ATOM_COUNT>
35

> <PUBCHEM_ATOM_DEF_STEREO_COUNT>
3

> <PUBCHEM_ATOM_UDEF_STEREO_COUNT>
0

> <PUBCHEM_BOND_DEF_STEREO_COUNT>
0

> <PUBCHEM_BOND_UDEF_STEREO_COUNT>
0

> <PUBCHEM_ISOTOPIC_ATOM_COUNT>
0

> <PUBCHEM_COMPONENT_COUNT>
1

> <PUBCHEM_CACTVS_TAUTO_COUNT>
-1

> <PUBCHEM_COORDINATE_TYPE>
1
5
255

> <PUBCHEM_BONDANNOTATIONS>
1  22  8
1  26  8
17  48  6
25  26  8
30  31  8
30  32  8
31  33  8
32  34  8
33  35  8
34  35  8
11  7  6
8  22  8
8  25  8
24  9  5

$$$$
46931953
  -OEChem-02182015172D

 27 28  0     0  0  0  0  0  0999 V2000
    5.5116    0.5224    0.0000 S   0  0  0  0  0  0  0  0  0  0  0  0
    3.7320    0.4291    0.0000 S   0  0  0  0  0  0  0  0  0  0  0  0
    2.0000   -0.5709    0.0000 F   0  0  0  0  0  0  0  0  0  0  0  0
    3.7320   -3.5709    0.0000 F   0  0  0  0  0  0  0  0  0  0  0  0
    7.5820    0.2474    0.0000 O   0  0  0  0  0  0  0  0  0  0  0  0
    4.1674    3.5709    0.0000 O   0  5  0  0  0  0  0  0  0  0  0  0
    3.0084    2.2837    0.0000 O   0  0  0  0  0  0  0  0  0  0  0  0
    3.9595    2.5928    0.0000 N   0  3  0  0  0  0  0  0  0  0  0  0
    4.7026    1.9236    0.0000 C   0  0  0  0  0  0  0  0  0  0  0  0
    4.5981    0.9291    0.0000 C   0  0  0  0  0  0  0  0  0  0  0  0
    6.1808    1.2655    0.0000 C   0  0  0  0  0  0  0  0  0  0  0  0
    5.6808    2.1315    0.0000 C   0  0  0  0  0  0  0  0  0  0  0  0
    3.7320   -0.5709    0.0000 C   0  0  0  0  0  0  0  0  0  0  0  0
    7.1753    1.1610    0.0000 C   0  0  0  0  0  0  0  0  0  0  0  0
    2.8660   -1.0709    0.0000 C   0  0  0  0  0  0  0  0  0  0  0  0
    4.5981   -1.0709    0.0000 C   0  0  0  0  0  0  0  0  0  0  0  0
    2.8660   -2.0709    0.0000 C   0  0  0  0  0  0  0  0  0  0  0  0
    4.5981   -2.0709    0.0000 C   0  0  0  0  0  0  0  0  0  0  0  0
    7.7631    1.9700    0.0000 C   0  0  0  0  0  0  0  0  0  0  0  0
    3.7320   -2.5709    0.0000 C   0  0  0  0  0  0  0  0  0  0  0  0
    5.9329    2.6979    0.0000 H   0  0  0  0  0  0  0  0  0  0  0  0
    5.1350   -0.7609    0.0000 H   0  0  0  0  0  0  0  0  0  0  0  0
    2.3291   -2.3809    0.0000 H   0  0  0  0  0  0  0  0  0  0  0  0
    5.1350   -2.3809    0.0000 H   0  0  0  0  0  0  0  0  0  0  0  0
    8.2646    1.6056    0.0000 H   0  0  0  0  0  0  0  0  0  0  0  0
    8.1275    2.4716    0.0000 H   0  0  0  0  0  0  0  0  0  0  0  0
    7.2615    2.3344    0.0000 H   0  0  0  0  0  0  0  0  0  0  0  0
  1 10  1  0  0  0  0
  1 11  1  0  0  0  0
  2 10  1  0  0  0  0
  2 13  1  0  0  0  0
  3 15  1  0  0  0  0
  4 20  1  0  0  0  0
  5 14  2  0  0  0  0
  6  8  1  0  0  0  0
  7  8  2  0  0  0  0
  8  9  1  0  0  0  0
  9 10  2  0  0  0  0
  9 12  1  0  0  0  0
 11 12  2  0  0  0  0
 11 14  1  0  0  0  0
 12 21  1  0  0  0  0
 13 15  2  0  0  0  0
 13 16  1  0  0  0  0
 14 19  1  0  0  0  0
 15 17  1  0  0  0  0
 16 18  2  0  0  0  0
 16 22  1  0  0  0  0
 17 20  2  0  0  0  0
 17 23  1  0  0  0  0
 18 20  1  0  0  0  0
 18 24  1  0  0  0  0
 19 25  1  0  0  0  0
 19 26  1  0  0  0  0
 19 27  1  0  0  0  0
M  CHG  2   6  -1   8   1
M  END
> <PUBCHEM_COMPOUND_CID>
46931953

> <PUBCHEM_COMPOUND_CANONICALIZED>
1

> <PUBCHEM_CACTVS_COMPLEXITY>
393

> <PUBCHEM_CACTVS_HBOND_ACCEPTOR>
7

> <PUBCHEM_CACTVS_HBOND_DONOR>
0

> <PUBCHEM_CACTVS_ROTATABLE_BOND>
3

> <PUBCHEM_CACTVS_SUBSKEYS>
AAADcYByMYBgAAAAAAAAAAAAAAAAASAAAAAwAAAAAAAAAAABwAAAHwQEAAAACAyB0AgywYAQQAiNAKRSQwCDAYAkChBoiB0AZMoIIDKglZCAIQRggAAoyYccAAAAAAAAAAAAAAAAAAAAAAAAAAAAAAAAAA==

> <PUBCHEM_IUPAC_OPENEYE_NAME>
1-[5-(2,4-difluorophenyl)sulfanyl-4-nitro-2-thienyl]ethanone

> <PUBCHEM_IUPAC_CAS_NAME>
1-[5-[(2,4-difluorophenyl)thio]-4-nitro-2-thiophenyl]ethanone

> <PUBCHEM_IUPAC_NAME_MARKUP>
1-[5-(2,4-difluorophenyl)sulfanyl-4-nitrothiophen-2-yl]ethanone

> <PUBCHEM_IUPAC_NAME>
1-[5-(2,4-difluorophenyl)sulfanyl-4-nitrothiophen-2-yl]ethanone

> <PUBCHEM_IUPAC_SYSTEMATIC_NAME>
1-[5-[2,4-bis(fluoranyl)phenyl]sulfanyl-4-nitro-thiophen-2-yl]ethanone

> <PUBCHEM_IUPAC_TRADITIONAL_NAME>
1-[5-[(2,4-difluorophenyl)thio]-4-nitro-2-thienyl]ethanone

> <PUBCHEM_IUPAC_INCHI>
InChI=1S/C12H7F2NO3S2/c1-6(16)11-5-9(15(17)18)12(20-11)19-10-3-2-7(13)4-8(10)14/h2-5H,1H3

> <PUBCHEM_IUPAC_INCHIKEY>
RMAMGGNACJHXHO-UHFFFAOYSA-N

> <PUBCHEM_XLOGP3_AA>
4.1

> <PUBCHEM_EXACT_MASS>
314.983542

> <PUBCHEM_MOLECULAR_FORMULA>
C12H7F2NO3S2

> <PUBCHEM_MOLECULAR_WEIGHT>
315.3

> <PUBCHEM_OPENEYE_CAN_SMILES>
CC(=O)C1=CC(=C(S1)SC2=C(C=C(C=C2)F)F)[N+](=O)[O-]

> <PUBCHEM_OPENEYE_ISO_SMILES>
CC(=O)C1=CC(=C(S1)SC2=C(C=C(C=C2)F)F)[N+](=O)[O-]

> <PUBCHEM_CACTVS_TPSA>
116

> <PUBCHEM_MONOISOTOPIC_WEIGHT>
314.983542

> <PUBCHEM_TOTAL_CHARGE>
0

> <PUBCHEM_HEAVY_ATOM_COUNT>
20

> <PUBCHEM_ATOM_DEF_STEREO_COUNT>
0

> <PUBCHEM_ATOM_UDEF_STEREO_COUNT>
0

> <PUBCHEM_BOND_DEF_STEREO_COUNT>
0

> <PUBCHEM_BOND_UDEF_STEREO_COUNT>
0

> <PUBCHEM_ISOTOPIC_ATOM_COUNT>
0

> <PUBCHEM_COMPONENT_COUNT>
1

> <PUBCHEM_CACTVS_TAUTO_COUNT>
-1

> <PUBCHEM_COORDINATE_TYPE>
1
5
255

> <PUBCHEM_BONDANNOTATIONS>
1  10  8
1  11  8
11  12  8
13  15  8
13  16  8
15  17  8
16  18  8
17  20  8
18  20  8
9  10  8
9  12  8

$$$$
73555129
  -OEChem-02182015172D

 40 41  0     0  0  0  0  0  0999 V2000
    6.0010   -3.5000    0.0000 I   0  0  0  0  0  0  0  0  0  0  0  0
    4.2690   -4.5000    0.0000 Cl  0  0  0  0  0  0  0  0  0  0  0  0
    4.2690    1.5000    0.0000 O   0  0  0  0  0  0  0  0  0  0  0  0
    9.4651    2.5000    0.0000 O   0  0  0  0  0  0  0  0  0  0  0  0
    2.5369   -1.5000    0.0000 O   0  0  0  0  0  0  0  0  0  0  0  0
    6.0010    1.5000    0.0000 N   0  0  0  0  0  0  0  0  0  0  0  0
    7.7331    2.5000    0.0000 N   0  0  0  0  0  0  0  0  0  0  0  0
    4.2690   -0.5000    0.0000 N   0  0  0  0  0  0  0  0  0  0  0  0
    6.8671    1.0000    0.0000 C   0  0  0  0  0  0  0  0  0  0  0  0
    6.0010    2.5000    0.0000 C   0  0  0  0  0  0  0  0  0  0  0  0
    7.7331    1.5000    0.0000 C   0  0  0  0  0  0  0  0  0  0  0  0
    6.8671    3.0000    0.0000 C   0  0  0  0  0  0  0  0  0  0  0  0
    5.1350    1.0000    0.0000 C   0  0  0  0  0  0  0  0  0  0  0  0
    8.5991    3.0000    0.0000 C   0  0  0  0  0  0  0  0  0  0  0  0
    5.1350    0.0000    0.0000 C   0  0  0  0  0  0  0  0  0  0  0  0
    8.5991    4.0000    0.0000 C   0  0  0  0  0  0  0  0  0  0  0  0
    4.2690   -1.5000    0.0000 C   0  0  0  0  0  0  0  0  0  0  0  0
    3.4030   -2.0000    0.0000 C   0  0  0  0  0  0  0  0  0  0  0  0
    5.1350   -2.0000    0.0000 C   0  0  0  0  0  0  0  0  0  0  0  0
    9.4651    4.5000    0.0000 C   0  0  0  0  0  0  0  0  0  0  0  0
    3.4030   -3.0000    0.0000 C   0  0  0  0  0  0  0  0  0  0  0  0
    5.1350   -3.0000    0.0000 C   0  0  0  0  0  0  0  0  0  0  0  0
    4.2690   -3.5000    0.0000 C   0  0  0  0  0  0  0  0  0  0  0  0
    6.4685    0.5251    0.0000 H   0  0  0  0  0  0  0  0  0  0  0  0
    7.2656    0.5251    0.0000 H   0  0  0  0  0  0  0  0  0  0  0  0
    5.7890    3.0826    0.0000 H   0  0  0  0  0  0  0  0  0  0  0  0
    5.3905    2.3923    0.0000 H   0  0  0  0  0  0  0  0  0  0  0  0
    7.9451    0.9174    0.0000 H   0  0  0  0  0  0  0  0  0  0  0  0
    8.3437    1.6077    0.0000 H   0  0  0  0  0  0  0  0  0  0  0  0
    7.2656    3.4750    0.0000 H   0  0  0  0  0  0  0  0  0  0  0  0
    6.4685    3.4750    0.0000 H   0  0  0  0  0  0  0  0  0  0  0  0
    5.3471   -0.5826    0.0000 H   0  0  0  0  0  0  0  0  0  0  0  0
    5.7456    0.1077    0.0000 H   0  0  0  0  0  0  0  0  0  0  0  0
    3.7320   -0.1900    0.0000 H   0  0  0  0  0  0  0  0  0  0  0  0
    8.0622    4.3100    0.0000 H   0  0  0  0  0  0  0  0  0  0  0  0
    5.6720   -1.6900    0.0000 H   0  0  0  0  0  0  0  0  0  0  0  0
   10.0021    4.1900    0.0000 H   0  0  0  0  0  0  0  0  0  0  0  0
    9.4651    5.1200    0.0000 H   0  0  0  0  0  0  0  0  0  0  0  0
    2.8660   -3.3100    0.0000 H   0  0  0  0  0  0  0  0  0  0  0  0
    2.0000   -1.8100    0.0000 H   0  0  0  0  0  0  0  0  0  0  0  0
  1 22  1  0  0  0  0
  2 23  1  0  0  0  0
  3 13  2  0  0  0  0
  4 14  2  0  0  0  0
  5 18  1  0  0  0  0
  5 40  1  0  0  0  0
  6  9  1  0  0  0  0
  6 10  1  0  0  0  0
  6 13  1  0  0  0  0
  7 11  1  0  0  0  0
  7 12  1  0  0  0  0
  7 14  1  0  0  0  0
  8 15  1  0  0  0  0
  8 17  1  0  0  0  0
  8 34  1  0  0  0  0
  9 11  1  0  0  0  0
  9 24  1  0  0  0  0
  9 25  1  0  0  0  0
 10 12  1  0  0  0  0
 10 26  1  0  0  0  0
 10 27  1  0  0  0  0
 11 28  1  0  0  0  0
 11 29  1  0  0  0  0
 12 30  1  0  0  0  0
 12 31  1  0  0  0  0
 13 15  1  0  0  0  0
 14 16  1  0  0  0  0
 15 32  1  0  0  0  0
 15 33  1  0  0  0  0
 16 20  2  0  0  0  0
 16 35  1  0  0  0  0
 17 18  1  0  0  0  0
 17 19  2  0  0  0  0
 18 21  2  0  0  0  0
 19 22  1  0  0  0  0
 19 36  1  0  0  0  0
 20 37  1  0  0  0  0
 20 38  1  0  0  0  0
 21 23  1  0  0  0  0
 21 39  1  0  0  0  0
 22 23  2  0  0  0  0
M  END
> <PUBCHEM_COMPOUND_CID>
73555129

> <PUBCHEM_COMPOUND_CANONICALIZED>
1

> <PUBCHEM_CACTVS_COMPLEXITY>
457

> <PUBCHEM_CACTVS_HBOND_ACCEPTOR>
4

> <PUBCHEM_CACTVS_HBOND_DONOR>
2

> <PUBCHEM_CACTVS_ROTATABLE_BOND>
4

> <PUBCHEM_CACTVS_SUBSKEYS>
AAADceBzMAAEAgAAAAAAAAAAAAAAAAAAAAA8QAAAAAAAAAABAAAAHgIwCAAACA7DkCQwxoPAAgCIACVSUACCAAAhJwAIiICPbsgKZiLTkrOUcAhk1hHY2IeQQAAAAABAAQAAEAAAAIACAAAgAAAAAAAAAA==

> <PUBCHEM_IUPAC_OPENEYE_NAME>
1-[4-[2-(4-chloro-2-hydroxy-5-iodo-anilino)acetyl]piperazin-1-yl]prop-2-en-1-one

> <PUBCHEM_IUPAC_CAS_NAME>
1-[4-[2-(4-chloro-2-hydroxy-5-iodoanilino)-1-oxoethyl]-1-piperazinyl]-2-propen-1-one

> <PUBCHEM_IUPAC_NAME_MARKUP>
1-[4-[2-(4-chloro-2-hydroxy-5-iodoanilino)acetyl]piperazin-1-yl]prop-2-en-1-one

> <PUBCHEM_IUPAC_NAME>
1-[4-[2-(4-chloro-2-hydroxy-5-iodoanilino)acetyl]piperazin-1-yl]prop-2-en-1-one

> <PUBCHEM_IUPAC_SYSTEMATIC_NAME>
1-[4-[2-[(4-chloranyl-5-iodanyl-2-oxidanyl-phenyl)amino]ethanoyl]piperazin-1-yl]prop-2-en-1-one

> <PUBCHEM_IUPAC_TRADITIONAL_NAME>
1-[4-[2-(4-chloro-2-hydroxy-5-iodo-anilino)acetyl]piperazino]prop-2-en-1-one

> <PUBCHEM_IUPAC_INCHI>
InChI=1S/C15H17ClIN3O3/c1-2-14(22)19-3-5-20(6-4-19)15(23)9-18-12-8-11(17)10(16)7-13(12)21/h2,7-8,18,21H,1,3-6,9H2

> <PUBCHEM_IUPAC_INCHIKEY>
JFIFBWVNHLXJFY-UHFFFAOYSA-N

> <PUBCHEM_XLOGP3_AA>
2.2

> <PUBCHEM_EXACT_MASS>
449.00032

> <PUBCHEM_MOLECULAR_FORMULA>
C15H17ClIN3O3

> <PUBCHEM_MOLECULAR_WEIGHT>
449.67

> <PUBCHEM_OPENEYE_CAN_SMILES>
C=CC(=O)N1CCN(CC1)C(=O)CNC2=CC(=C(C=C2O)Cl)I

> <PUBCHEM_OPENEYE_ISO_SMILES>
C=CC(=O)N1CCN(CC1)C(=O)CNC2=CC(=C(C=C2O)Cl)I

> <PUBCHEM_CACTVS_TPSA>
72.9

> <PUBCHEM_MONOISOTOPIC_WEIGHT>
449.00032

> <PUBCHEM_TOTAL_CHARGE>
0

> <PUBCHEM_HEAVY_ATOM_COUNT>
23

> <PUBCHEM_ATOM_DEF_STEREO_COUNT>
0

> <PUBCHEM_ATOM_UDEF_STEREO_COUNT>
0

> <PUBCHEM_BOND_DEF_STEREO_COUNT>
0

> <PUBCHEM_BOND_UDEF_STEREO_COUNT>
0

> <PUBCHEM_ISOTOPIC_ATOM_COUNT>
0

> <PUBCHEM_COMPONENT_COUNT>
1

> <PUBCHEM_CACTVS_TAUTO_COUNT>
-1

> <PUBCHEM_COORDINATE_TYPE>
1
5
255

> <PUBCHEM_BONDANNOTATIONS>
17  18  8
17  19  8
18  21  8
19  22  8
21  23  8
22  23  8

$$$$
25227436
  -OEChem-02182015172D

 55 58  0     1  0  0  0  0  0999 V2000
    2.0000    1.9956    0.0000 Cl  0  0  0  0  0  0  0  0  0  0  0  0
    7.6736    2.1143    0.0000 O   0  0  0  0  0  0  0  0  0  0  0  0
    6.5000    4.5936    0.0000 O   0  0  0  0  0  0  0  0  0  0  0  0
    8.0000   -1.7365    0.0000 N   0  0  0  0  0  0  0  0  0  0  0  0
    8.7660    0.9063    0.0000 N   0  0  0  0  0  0  0  0  0  0  0  0
    6.5000    1.1295    0.0000 N   0  0  0  0  0  0  0  0  0  0  0  0
    7.1340   -3.2365    0.0000 N   0  0  0  0  0  0  0  0  0  0  0  0
    9.8122   -4.5412    0.0000 N   0  0  0  0  0  0  0  0  0  0  0  0
    8.0000   -4.7365    0.0000 N   0  0  0  0  0  0  0  0  0  0  0  0
    8.0000    0.2635    0.0000 C   0  0  0  0  0  0  0  0  0  0  0  0
    7.1340   -0.2365    0.0000 C   0  0  0  0  0  0  0  0  0  0  0  0
    8.8660   -0.2365    0.0000 C   0  0  0  0  0  0  0  0  0  0  0  0
    7.1340   -1.2365    0.0000 C   0  0  0  0  0  0  0  0  0  0  0  0
    8.8660   -1.2365    0.0000 C   0  0  0  0  0  0  0  0  0  0  0  0
    7.5000    1.1295    0.0000 C   0  0  0  0  0  0  0  0  0  0  0  0
    8.0000   -2.7365    0.0000 C   0  0  0  0  0  0  0  0  0  0  0  0
    6.0000    1.9956    0.0000 C   0  0  1  0  0  0  0  0  0  0  0  0
    8.8660   -3.2365    0.0000 C   0  0  0  0  0  0  0  0  0  0  0  0
    6.5000    2.8616    0.0000 C   0  0  0  0  0  0  0  0  0  0  0  0
    5.0000    1.9956    0.0000 C   0  0  0  0  0  0  0  0  0  0  0  0
    8.8660   -4.2365    0.0000 C   0  0  0  0  0  0  0  0  0  0  0  0
    9.8122   -2.9318    0.0000 C   0  0  0  0  0  0  0  0  0  0  0  0
    6.0000    3.7276    0.0000 C   0  0  0  0  0  0  0  0  0  0  0  0
    4.5000    1.1295    0.0000 C   0  0  0  0  0  0  0  0  0  0  0  0
    4.5000    2.8616    0.0000 C   0  0  0  0  0  0  0  0  0  0  0  0
    7.1340   -4.2365    0.0000 C   0  0  0  0  0  0  0  0  0  0  0  0
   10.3959   -3.7365    0.0000 C   0  0  0  0  0  0  0  0  0  0  0  0
    3.5000    1.1295    0.0000 C   0  0  0  0  0  0  0  0  0  0  0  0
    3.5000    2.8616    0.0000 C   0  0  0  0  0  0  0  0  0  0  0  0
    3.0000    1.9956    0.0000 C   0  0  0  0  0  0  0  0  0  0  0  0
    6.9219    0.3461    0.0000 H   0  0  0  0  0  0  0  0  0  0  0  0
    6.5234   -0.3442    0.0000 H   0  0  0  0  0  0  0  0  0  0  0  0
    9.4766   -0.3442    0.0000 H   0  0  0  0  0  0  0  0  0  0  0  0
    9.0781    0.3461    0.0000 H   0  0  0  0  0  0  0  0  0  0  0  0
    6.5234   -1.1288    0.0000 H   0  0  0  0  0  0  0  0  0  0  0  0
    6.9219   -1.8191    0.0000 H   0  0  0  0  0  0  0  0  0  0  0  0
    9.0781   -1.8191    0.0000 H   0  0  0  0  0  0  0  0  0  0  0  0
    9.4766   -1.1288    0.0000 H   0  0  0  0  0  0  0  0  0  0  0  0
    9.3486    0.6942    0.0000 H   0  0  0  0  0  0  0  0  0  0  0  0
    8.6584    1.5169    0.0000 H   0  0  0  0  0  0  0  0  0  0  0  0
    6.1900    0.5926    0.0000 H   0  0  0  0  0  0  0  0  0  0  0  0
    6.6200    1.9956    0.0000 H   0  0  0  0  0  0  0  0  0  0  0  0
    6.9750    2.4630    0.0000 H   0  0  0  0  0  0  0  0  0  0  0  0
    6.9750    3.2601    0.0000 H   0  0  0  0  0  0  0  0  0  0  0  0
    5.5250    4.1261    0.0000 H   0  0  0  0  0  0  0  0  0  0  0  0
    5.5250    3.3291    0.0000 H   0  0  0  0  0  0  0  0  0  0  0  0
   10.0049   -2.3424    0.0000 H   0  0  0  0  0  0  0  0  0  0  0  0
    4.8100    0.5926    0.0000 H   0  0  0  0  0  0  0  0  0  0  0  0
    4.8100    3.3985    0.0000 H   0  0  0  0  0  0  0  0  0  0  0  0
   10.0049   -5.1306    0.0000 H   0  0  0  0  0  0  0  0  0  0  0  0
    6.5970   -4.5465    0.0000 H   0  0  0  0  0  0  0  0  0  0  0  0
   11.0159   -3.7365    0.0000 H   0  0  0  0  0  0  0  0  0  0  0  0
    3.1900    0.5926    0.0000 H   0  0  0  0  0  0  0  0  0  0  0  0
    3.1900    3.3985    0.0000 H   0  0  0  0  0  0  0  0  0  0  0  0
    6.1900    5.1306    0.0000 H   0  0  0  0  0  0  0  0  0  0  0  0
  1 30  1  0  0  0  0
  2 15  2  0  0  0  0
  3 23  1  0  0  0  0
  3 55  1  0  0  0  0
  4 13  1  0  0  0  0
  4 14  1  0  0  0  0
  4 16  1  0  0  0  0
  5 10  1  0  0  0  0
  5 39  1  0  0  0  0
  5 40  1  0  0  0  0
  6 15  1  0  0  0  0
 17  6  1  6  0  0  0
  6 41  1  0  0  0  0
  7 16  2  0  0  0  0
  7 26  1  0  0  0  0
  8 21  1  0  0  0  0
  8 27  1  0  0  0  0
  8 50  1  0  0  0  0
  9 21  1  0  0  0  0
  9 26  2  0  0  0  0
 10 11  1  0  0  0  0
 10 12  1  0  0  0  0
 10 15  1  0  0  0  0
 11 13  1  0  0  0  0
 11 31  1  0  0  0  0
 11 32  1  0  0  0  0
 12 14  1  0  0  0  0
 12 33  1  0  0  0  0
 12 34  1  0  0  0  0
 13 35  1  0  0  0  0
 13 36  1  0  0  0  0
 14 37  1  0  0  0  0
 14 38  1  0  0  0  0
 16 18  1  0  0  0  0
 17 19  1  0  0  0  0
 17 20  1  0  0  0  0
 17 42  1  0  0  0  0
 18 21  2  0  0  0  0
 18 22  1  0  0  0  0
 19 23  1  0  0  0  0
 19 43  1  0  0  0  0
 19 44  1  0  0  0  0
 20 24  2  0  0  0  0
 20 25  1  0  0  0  0
 22 27  2  0  0  0  0
 22 47  1  0  0  0  0
 23 45  1  0  0  0  0
 23 46  1  0  0  0  0
 24 28  1  0  0  0  0
 24 48  1  0  0  0  0
 25 29  2  0  0  0  0
 25 49  1  0  0  0  0
 26 51  1  0  0  0  0
 27 52  1  0  0  0  0
 28 30  2  0  0  0  0
 28 53  1  0  0  0  0
 29 30  1  0  0  0  0
 29 54  1  0  0  0  0
M  END
> <PUBCHEM_COMPOUND_CID>
25227436

> <PUBCHEM_COMPOUND_CANONICALIZED>
1

> <PUBCHEM_CACTVS_COMPLEXITY>
580

> <PUBCHEM_CACTVS_HBOND_ACCEPTOR>
6

> <PUBCHEM_CACTVS_HBOND_DONOR>
4

> <PUBCHEM_CACTVS_ROTATABLE_BOND>
6

> <PUBCHEM_CACTVS_SUBSKEYS>
AAADceB7sAAEAAAAAAAAAAAAAAAAAWAAAAA8WIAAAAAAAFgB/AAAHgIQCAAADKrhmyY9sN/JkgCoAjN3dACCgCmxB6AJ2aG4ZpiIePLB29GUZAhulgLIyCeUwKAOBAAAAAAAAAAIAAAAAAAAAAAAAAAAAA==

> <PUBCHEM_IUPAC_OPENEYE_NAME>
4-amino-N-[(1S)-1-(4-chlorophenyl)-3-hydroxy-propyl]-1-(7H-pyrrolo[2,3-d]pyrimidin-4-yl)piperidine-4-carboxamide

> <PUBCHEM_IUPAC_CAS_NAME>
4-amino-N-[(1S)-1-(4-chlorophenyl)-3-hydroxypropyl]-1-(7H-pyrrolo[2,3-d]pyrimidin-4-yl)-4-piperidinecarboxamide

> <PUBCHEM_IUPAC_NAME_MARKUP>
4-amino-<I>N</I>-[(1<I>S</I>)-1-(4-chlorophenyl)-3-hydroxypropyl]-1-(7<I>H</I>-pyrrolo[2,3-d]pyrimidin-4-yl)piperidine-4-carboxamide

> <PUBCHEM_IUPAC_NAME>
4-amino-N-[(1S)-1-(4-chlorophenyl)-3-hydroxypropyl]-1-(7H-pyrrolo[2,3-d]pyrimidin-4-yl)piperidine-4-carboxamide

> <PUBCHEM_IUPAC_SYSTEMATIC_NAME>
4-azanyl-N-[(1S)-1-(4-chlorophenyl)-3-oxidanyl-propyl]-1-(7H-pyrrolo[2,3-d]pyrimidin-4-yl)piperidine-4-carboxamide

> <PUBCHEM_IUPAC_TRADITIONAL_NAME>
4-amino-N-[(1S)-1-(4-chlorophenyl)-3-hydroxy-propyl]-1-(7H-pyrrolo[2,3-d]pyrimidin-4-yl)isonipecotamide

> <PUBCHEM_IUPAC_INCHI>
InChI=1S/C21H25ClN6O2/c22-15-3-1-14(2-4-15)17(6-12-29)27-20(30)21(23)7-10-28(11-8-21)19-16-5-9-24-18(16)25-13-26-19/h1-5,9,13,17,29H,6-8,10-12,23H2,(H,27,30)(H,24,25,26)/t17-/m0/s1

> <PUBCHEM_IUPAC_INCHIKEY>
JDUBGYFRJFOXQC-KRWDZBQOSA-N

> <PUBCHEM_XLOGP3_AA>
1.7

> <PUBCHEM_EXACT_MASS>
428.172752

> <PUBCHEM_MOLECULAR_FORMULA>
C21H25ClN6O2

> <PUBCHEM_MOLECULAR_WEIGHT>
428.9

> <PUBCHEM_OPENEYE_CAN_SMILES>
C1CN(CCC1(C(=O)NC(CCO)C2=CC=C(C=C2)Cl)N)C3=NC=NC4=C3C=CN4

> <PUBCHEM_OPENEYE_ISO_SMILES>
C1CN(CCC1(C(=O)N[C@@H](CCO)C2=CC=C(C=C2)Cl)N)C3=NC=NC4=C3C=CN4

> <PUBCHEM_CACTVS_TPSA>
120

> <PUBCHEM_MONOISOTOPIC_WEIGHT>
428.172752

> <PUBCHEM_TOTAL_CHARGE>
0

> <PUBCHEM_HEAVY_ATOM_COUNT>
30

> <PUBCHEM_ATOM_DEF_STEREO_COUNT>
1

> <PUBCHEM_ATOM_UDEF_STEREO_COUNT>
0

> <PUBCHEM_BOND_DEF_STEREO_COUNT>
0

> <PUBCHEM_BOND_UDEF_STEREO_COUNT>
0

> <PUBCHEM_ISOTOPIC_ATOM_COUNT>
0

> <PUBCHEM_COMPONENT_COUNT>
1

> <PUBCHEM_CACTVS_TAUTO_COUNT>
-1

> <PUBCHEM_COORDINATE_TYPE>
1
5
255

> <PUBCHEM_BONDANNOTATIONS>
16  18  8
18  21  8
18  22  8
20  24  8
20  25  8
22  27  8
24  28  8
25  29  8
28  30  8
29  30  8
17  6  6
7  16  8
7  26  8
8  21  8
8  27  8
9  21  8
9  26  8

$$$$
71496458
  -OEChem-02182015172D

 70 73  0     1  0  0  0  0  0999 V2000
    5.9209    0.3295    0.0000 O   0  0  0  0  0  0  0  0  0  0  0  0
   10.1921   -0.5405    0.0000 O   0  0  0  0  0  0  0  0  0  0  0  0
    8.4993    2.6430    0.0000 N   0  0  3  0  0  0  0  0  0  0  0  0
    4.6783   -5.0821    0.0000 N   0  0  0  0  0  0  0  0  0  0  0  0
    7.4742    5.0821    0.0000 N   0  0  0  0  0  0  0  0  0  0  0  0
    7.2566   -1.1591    0.0000 N   0  0  0  0  0  0  0  0  0  0  0  0
    9.8349    1.1544    0.0000 N   0  0  0  0  0  0  0  0  0  0  0  0
    5.9674   -2.3159    0.0000 N   0  0  0  0  0  0  0  0  0  0  0  0
    5.6103   -0.6210    0.0000 N   0  0  0  0  0  0  0  0  0  0  0  0
    7.8314    3.3872    0.0000 C   0  0  0  0  0  0  0  0  0  0  0  0
    8.1886    1.6924    0.0000 C   0  0  0  0  0  0  0  0  0  0  0  0
    8.1421    4.3378    0.0000 C   0  0  0  0  0  0  0  0  0  0  0  0
    3.7320   -3.7773    0.0000 C   0  0  0  0  0  0  0  0  0  0  0  0
    3.7320   -4.7773    0.0000 C   0  0  0  0  0  0  0  0  0  0  0  0
    4.6783   -3.4726    0.0000 C   0  0  0  0  0  0  0  0  0  0  0  0
    8.8564    0.9481    0.0000 C   0  0  0  0  0  0  0  0  0  0  0  0
    7.2101    1.4862    0.0000 C   0  0  0  0  0  0  0  0  0  0  0  0
    5.2619   -4.2773    0.0000 C   0  0  0  0  0  0  0  0  0  0  0  0
    7.5673   -0.2086    0.0000 C   0  0  0  0  0  0  0  0  0  0  0  0
    9.4778    2.8492    0.0000 C   0  0  0  0  0  0  0  0  0  0  0  0
    6.8994    0.5357    0.0000 C   0  0  0  0  0  0  0  0  0  0  0  0
    8.5458   -0.0024    0.0000 C   0  0  0  0  0  0  0  0  0  0  0  0
    4.9889   -2.5221    0.0000 C   0  0  0  0  0  0  0  0  0  0  0  0
    2.8660   -3.2773    0.0000 C   0  0  0  0  0  0  0  0  0  0  0  0
    2.8660   -5.2773    0.0000 C   0  0  0  0  0  0  0  0  0  0  0  0
    4.9889   -6.0326    0.0000 C   0  0  0  0  0  0  0  0  0  0  0  0
    7.7849    6.0326    0.0000 C   0  0  0  0  0  0  0  0  0  0  0  0
    6.4957    4.8758    0.0000 C   0  0  0  0  0  0  0  0  0  0  0  0
    6.2781   -1.3654    0.0000 C   0  0  0  0  0  0  0  0  0  0  0  0
    2.0000   -3.7773    0.0000 C   0  0  0  0  0  0  0  0  0  0  0  0
    2.0000   -4.7773    0.0000 C   0  0  0  0  0  0  0  0  0  0  0  0
    4.3211   -1.7778    0.0000 C   0  0  0  0  0  0  0  0  0  0  0  0
    4.6318   -0.8273    0.0000 C   0  0  0  0  0  0  0  0  0  0  0  0
   10.5028    0.4100    0.0000 C   0  0  0  0  0  0  0  0  0  0  0  0
    5.2531    1.0738    0.0000 C   0  0  0  0  0  0  0  0  0  0  0  0
   11.4813    0.6163    0.0000 C   0  0  0  0  0  0  0  0  0  0  0  0
   12.1491   -0.1280    0.0000 C   0  0  0  0  0  0  0  0  0  0  0  0
    7.2845    3.6793    0.0000 H   0  0  0  0  0  0  0  0  0  0  0  0
    7.4489    2.8994    0.0000 H   0  0  0  0  0  0  0  0  0  0  0  0
    8.6890    4.0458    0.0000 H   0  0  0  0  0  0  0  0  0  0  0  0
    8.5246    4.8257    0.0000 H   0  0  0  0  0  0  0  0  0  0  0  0
    6.7960    1.9477    0.0000 H   0  0  0  0  0  0  0  0  0  0  0  0
    5.8819   -4.2773    0.0000 H   0  0  0  0  0  0  0  0  0  0  0  0
    9.6056    2.2425    0.0000 H   0  0  0  0  0  0  0  0  0  0  0  0
   10.0844    2.9770    0.0000 H   0  0  0  0  0  0  0  0  0  0  0  0
    9.3499    3.4558    0.0000 H   0  0  0  0  0  0  0  0  0  0  0  0
    8.9598   -0.4639    0.0000 H   0  0  0  0  0  0  0  0  0  0  0  0
    2.8660   -2.6573    0.0000 H   0  0  0  0  0  0  0  0  0  0  0  0
    2.8660   -5.8973    0.0000 H   0  0  0  0  0  0  0  0  0  0  0  0
    4.3996   -6.2252    0.0000 H   0  0  0  0  0  0  0  0  0  0  0  0
    5.1815   -6.6219    0.0000 H   0  0  0  0  0  0  0  0  0  0  0  0
    5.5783   -5.8400    0.0000 H   0  0  0  0  0  0  0  0  0  0  0  0
    7.6707   -1.6206    0.0000 H   0  0  0  0  0  0  0  0  0  0  0  0
   10.0276    1.7437    0.0000 H   0  0  0  0  0  0  0  0  0  0  0  0
    8.3742    5.8400    0.0000 H   0  0  0  0  0  0  0  0  0  0  0  0
    7.9775    6.6219    0.0000 H   0  0  0  0  0  0  0  0  0  0  0  0
    7.1956    6.2252    0.0000 H   0  0  0  0  0  0  0  0  0  0  0  0
    6.3679    5.4825    0.0000 H   0  0  0  0  0  0  0  0  0  0  0  0
    5.8890    4.7480    0.0000 H   0  0  0  0  0  0  0  0  0  0  0  0
    6.6236    4.2692    0.0000 H   0  0  0  0  0  0  0  0  0  0  0  0
    1.4631   -3.4673    0.0000 H   0  0  0  0  0  0  0  0  0  0  0  0
    1.4631   -5.0873    0.0000 H   0  0  0  0  0  0  0  0  0  0  0  0
    3.7144   -1.9056    0.0000 H   0  0  0  0  0  0  0  0  0  0  0  0
    4.2177   -0.3658    0.0000 H   0  0  0  0  0  0  0  0  0  0  0  0
    5.7145    1.4878    0.0000 H   0  0  0  0  0  0  0  0  0  0  0  0
    4.8390    1.5352    0.0000 H   0  0  0  0  0  0  0  0  0  0  0  0
    4.7916    0.6597    0.0000 H   0  0  0  0  0  0  0  0  0  0  0  0
   11.6739    1.2056    0.0000 H   0  0  0  0  0  0  0  0  0  0  0  0
   11.9565   -0.7174    0.0000 H   0  0  0  0  0  0  0  0  0  0  0  0
   12.7558   -0.0002    0.0000 H   0  0  0  0  0  0  0  0  0  0  0  0
  1 21  1  0  0  0  0
  1 35  1  0  0  0  0
  2 34  2  0  0  0  0
  3 10  1  0  0  0  0
  3 11  1  0  0  0  0
  3 20  1  0  0  0  0
  4 14  1  0  0  0  0
  4 18  1  0  0  0  0
  4 26  1  0  0  0  0
  5 12  1  0  0  0  0
  5 27  1  0  0  0  0
  5 28  1  0  0  0  0
  6 19  1  0  0  0  0
  6 29  1  0  0  0  0
  6 53  1  0  0  0  0
  7 16  1  0  0  0  0
  7 34  1  0  0  0  0
  7 54  1  0  0  0  0
  8 23  2  0  0  0  0
  8 29  1  0  0  0  0
  9 29  2  0  0  0  0
  9 33  1  0  0  0  0
 10 12  1  0  0  0  0
 10 38  1  0  0  0  0
 10 39  1  0  0  0  0
 11 16  1  0  0  0  0
 11 17  2  0  0  0  0
 12 40  1  0  0  0  0
 12 41  1  0  0  0  0
 13 14  1  0  0  0  0
 13 15  1  0  0  0  0
 13 24  2  0  0  0  0
 14 25  2  0  0  0  0
 15 18  2  0  0  0  0
 15 23  1  0  0  0  0
 16 22  2  0  0  0  0
 17 21  1  0  0  0  0
 17 42  1  0  0  0  0
 18 43  1  0  0  0  0
 19 21  2  0  0  0  0
 19 22  1  0  0  0  0
 20 44  1  0  0  0  0
 20 45  1  0  0  0  0
 20 46  1  0  0  0  0
 22 47  1  0  0  0  0
 23 32  1  0  0  0  0
 24 30  1  0  0  0  0
 24 48  1  0  0  0  0
 25 31  1  0  0  0  0
 25 49  1  0  0  0  0
 26 50  1  0  0  0  0
 26 51  1  0  0  0  0
 26 52  1  0  0  0  0
 27 55  1  0  0  0  0
 27 56  1  0  0  0  0
 27 57  1  0  0  0  0
 28 58  1  0  0  0  0
 28 59  1  0  0  0  0
 28 60  1  0  0  0  0
 30 31  2  0  0  0  0
 30 61  1  0  0  0  0
 31 62  1  0  0  0  0
 32 33  2  0  0  0  0
 32 63  1  0  0  0  0
 33 64  1  0  0  0  0
 34 36  1  0  0  0  0
 35 65  1  0  0  0  0
 35 66  1  0  0  0  0
 35 67  1  0  0  0  0
 36 37  2  0  0  0  0
 36 68  1  0  0  0  0
 37 69  1  0  0  0  0
 37 70  1  0  0  0  0
M  END
> <PUBCHEM_COMPOUND_CID>
71496458

> <PUBCHEM_COMPOUND_CANONICALIZED>
1

> <PUBCHEM_CACTVS_COMPLEXITY>
752

> <PUBCHEM_CACTVS_HBOND_ACCEPTOR>
7

> <PUBCHEM_CACTVS_HBOND_DONOR>
2

> <PUBCHEM_CACTVS_ROTATABLE_BOND>
10

> <PUBCHEM_CACTVS_SUBSKEYS>
AAADcfB7sAAAAAAAAAAAAAAAAAAAAWAAAAA8YIAAAAAAAFgB/AAAHgAQAAAADAzBngY/1vfMFACoAzV3dACCiCkxIqAJ2CA/fNiObuLE+duVNChu1BvY6Kew0MMOgECAAgQCECAAgQAECAQgQAAAAAAAAA==

> <PUBCHEM_IUPAC_OPENEYE_NAME>
N-[2-[2-(dimethylamino)ethyl-methyl-amino]-4-methoxy-5-[[4-(1-methylindol-3-yl)pyrimidin-2-yl]amino]phenyl]prop-2-enamide

> <PUBCHEM_IUPAC_CAS_NAME>
N-[2-[2-(dimethylamino)ethyl-methylamino]-4-methoxy-5-[[4-(1-methyl-3-indolyl)-2-pyrimidinyl]amino]phenyl]-2-propenamide

> <PUBCHEM_IUPAC_NAME_MARKUP>
<I>N</I>-[2-[2-(dimethylamino)ethyl-methylamino]-4-methoxy-5-[[4-(1-methylindol-3-yl)pyrimidin-2-yl]amino]phenyl]prop-2-enamide

> <PUBCHEM_IUPAC_NAME>
N-[2-[2-(dimethylamino)ethyl-methylamino]-4-methoxy-5-[[4-(1-methylindol-3-yl)pyrimidin-2-yl]amino]phenyl]prop-2-enamide

> <PUBCHEM_IUPAC_SYSTEMATIC_NAME>
N-[2-[2-(dimethylamino)ethyl-methyl-amino]-4-methoxy-5-[[4-(1-methylindol-3-yl)pyrimidin-2-yl]amino]phenyl]prop-2-enamide

> <PUBCHEM_IUPAC_TRADITIONAL_NAME>
N-[2-[2-(dimethylamino)ethyl-methyl-amino]-4-methoxy-5-[[4-(1-methylindol-3-yl)pyrimidin-2-yl]amino]phenyl]acrylamide

> <PUBCHEM_IUPAC_INCHI>
InChI=1S/C28H33N7O2/c1-7-27(36)30-22-16-23(26(37-6)17-25(22)34(4)15-14-33(2)3)32-28-29-13-12-21(31-28)20-18-35(5)24-11-9-8-10-19(20)24/h7-13,16-18H,1,14-15H2,2-6H3,(H,30,36)(H,29,31,32)

> <PUBCHEM_IUPAC_INCHIKEY>
DUYJMQONPNNFPI-UHFFFAOYSA-N

> <PUBCHEM_XLOGP3_AA>
3.7

> <PUBCHEM_EXACT_MASS>
499.269573

> <PUBCHEM_MOLECULAR_FORMULA>
C28H33N7O2

> <PUBCHEM_MOLECULAR_WEIGHT>
499.6

> <PUBCHEM_OPENEYE_CAN_SMILES>
CN1C=C(C2=CC=CC=C21)C3=NC(=NC=C3)NC4=C(C=C(C(=C4)NC(=O)C=C)N(C)CCN(C)C)OC

> <PUBCHEM_OPENEYE_ISO_SMILES>
CN1C=C(C2=CC=CC=C21)C3=NC(=NC=C3)NC4=C(C=C(C(=C4)NC(=O)C=C)N(C)CCN(C)C)OC

> <PUBCHEM_CACTVS_TPSA>
87.6

> <PUBCHEM_MONOISOTOPIC_WEIGHT>
499.269573

> <PUBCHEM_TOTAL_CHARGE>
0

> <PUBCHEM_HEAVY_ATOM_COUNT>
37

> <PUBCHEM_ATOM_DEF_STEREO_COUNT>
0

> <PUBCHEM_ATOM_UDEF_STEREO_COUNT>
0

> <PUBCHEM_BOND_DEF_STEREO_COUNT>
0

> <PUBCHEM_BOND_UDEF_STEREO_COUNT>
0

> <PUBCHEM_ISOTOPIC_ATOM_COUNT>
0

> <PUBCHEM_COMPONENT_COUNT>
1

> <PUBCHEM_CACTVS_TAUTO_COUNT>
-1

> <PUBCHEM_COORDINATE_TYPE>
1
5
255

> <PUBCHEM_BONDANNOTATIONS>
11  16  8
11  17  8
13  14  8
13  15  8
13  24  8
14  25  8
15  18  8
16  22  8
17  21  8
19  21  8
19  22  8
23  32  8
24  30  8
25  31  8
30  31  8
32  33  8
4  14  8
4  18  8
8  23  8
8  29  8
9  29  8
9  33  8

$$$$
9933475
  -OEChem-02182015172D

 60 64  0     0  0  0  0  0  0999 V2000
    8.7720   -3.6282    0.0000 F   0  0  0  0  0  0  0  0  0  0  0  0
    5.3147    1.4062    0.0000 O   0  0  0  0  0  0  0  0  0  0  0  0
    8.7952   -1.6284    0.0000 O   0  0  0  0  0  0  0  0  0  0  0  0
    5.3147   -0.5938    0.0000 O   0  0  0  0  0  0  0  0  0  0  0  0
    3.5827    4.4062    0.0000 N   0  0  0  0  0  0  0  0  0  0  0  0
   12.1050   -3.8339    0.0000 N   0  0  0  0  0  0  0  0  0  0  0  0
    8.8067    1.4409    0.0000 N   0  0  0  0  0  0  0  0  0  0  0  0
    9.7128   -0.1146    0.0000 N   0  0  0  0  0  0  0  0  0  0  0  0
    3.4782    5.4008    0.0000 C   0  0  0  0  0  0  0  0  0  0  0  0
    2.6691    3.9995    0.0000 C   0  0  0  0  0  0  0  0  0  0  0  0
    2.5000    5.6087    0.0000 C   0  0  0  0  0  0  0  0  0  0  0  0
    2.0000    4.7426    0.0000 C   0  0  0  0  0  0  0  0  0  0  0  0
    4.4487    3.9062    0.0000 C   0  0  0  0  0  0  0  0  0  0  0  0
    4.4487    2.9062    0.0000 C   0  0  0  0  0  0  0  0  0  0  0  0
    5.3147    2.4062    0.0000 C   0  0  0  0  0  0  0  0  0  0  0  0
    6.1808    0.9062    0.0000 C   0  0  0  0  0  0  0  0  0  0  0  0
    6.1808   -0.0938    0.0000 C   0  0  0  0  0  0  0  0  0  0  0  0
    7.0468    1.4062    0.0000 C   0  0  0  0  0  0  0  0  0  0  0  0
    7.9128   -0.0938    0.0000 C   0  0  0  0  0  0  0  0  0  0  0  0
    7.9128    0.9062    0.0000 C   0  0  0  0  0  0  0  0  0  0  0  0
   10.5040   -3.6483    0.0000 C   0  0  0  0  0  0  0  0  0  0  0  0
   11.3757   -3.1583    0.0000 C   0  0  0  0  0  0  0  0  0  0  0  0
    7.0468   -0.5938    0.0000 C   0  0  0  0  0  0  0  0  0  0  0  0
   11.6894   -4.7369    0.0000 C   0  0  0  0  0  0  0  0  0  0  0  0
   10.7019   -4.6224    0.0000 C   0  0  0  0  0  0  0  0  0  0  0  0
    8.8067   -0.6284    0.0000 C   0  0  0  0  0  0  0  0  0  0  0  0
    9.6438   -3.1383    0.0000 C   0  0  0  0  0  0  0  0  0  0  0  0
    9.6554   -2.1384    0.0000 C   0  0  0  0  0  0  0  0  0  0  0  0
   11.3873   -2.1584    0.0000 C   0  0  0  0  0  0  0  0  0  0  0  0
   10.5271   -1.6484    0.0000 C   0  0  0  0  0  0  0  0  0  0  0  0
   12.1794   -5.6087    0.0000 C   0  0  0  0  0  0  0  0  0  0  0  0
    9.7128    0.9270    0.0000 C   0  0  0  0  0  0  0  0  0  0  0  0
    5.3147   -1.5938    0.0000 C   0  0  0  0  0  0  0  0  0  0  0  0
    4.0982    5.4008    0.0000 H   0  0  0  0  0  0  0  0  0  0  0  0
    3.5430    6.0174    0.0000 H   0  0  0  0  0  0  0  0  0  0  0  0
    2.1675    3.6351    0.0000 H   0  0  0  0  0  0  0  0  0  0  0  0
    2.9791    3.4626    0.0000 H   0  0  0  0  0  0  0  0  0  0  0  0
    2.6916    6.1983    0.0000 H   0  0  0  0  0  0  0  0  0  0  0  0
    1.9336    5.8608    0.0000 H   0  0  0  0  0  0  0  0  0  0  0  0
    1.4984    5.1071    0.0000 H   0  0  0  0  0  0  0  0  0  0  0  0
    1.5851    4.2819    0.0000 H   0  0  0  0  0  0  0  0  0  0  0  0
    5.0593    3.7986    0.0000 H   0  0  0  0  0  0  0  0  0  0  0  0
    4.6608    4.4888    0.0000 H   0  0  0  0  0  0  0  0  0  0  0  0
    3.8381    3.0139    0.0000 H   0  0  0  0  0  0  0  0  0  0  0  0
    4.2366    2.3236    0.0000 H   0  0  0  0  0  0  0  0  0  0  0  0
    5.9253    2.2986    0.0000 H   0  0  0  0  0  0  0  0  0  0  0  0
    5.5268    2.9888    0.0000 H   0  0  0  0  0  0  0  0  0  0  0  0
    7.0468    2.0262    0.0000 H   0  0  0  0  0  0  0  0  0  0  0  0
    7.0468   -1.2138    0.0000 H   0  0  0  0  0  0  0  0  0  0  0  0
   10.2826   -5.0791    0.0000 H   0  0  0  0  0  0  0  0  0  0  0  0
   12.7131   -3.7130    0.0000 H   0  0  0  0  0  0  0  0  0  0  0  0
   11.9278   -1.8546    0.0000 H   0  0  0  0  0  0  0  0  0  0  0  0
   10.5343   -1.0284    0.0000 H   0  0  0  0  0  0  0  0  0  0  0  0
   11.6389   -5.9124    0.0000 H   0  0  0  0  0  0  0  0  0  0  0  0
   12.4831   -6.1492    0.0000 H   0  0  0  0  0  0  0  0  0  0  0  0
   12.7198   -5.3049    0.0000 H   0  0  0  0  0  0  0  0  0  0  0  0
   10.2485    1.2391    0.0000 H   0  0  0  0  0  0  0  0  0  0  0  0
    4.6947   -1.5938    0.0000 H   0  0  0  0  0  0  0  0  0  0  0  0
    5.3147   -2.2138    0.0000 H   0  0  0  0  0  0  0  0  0  0  0  0
    5.9347   -1.5938    0.0000 H   0  0  0  0  0  0  0  0  0  0  0  0
  1 27  1  0  0  0  0
  2 15  1  0  0  0  0
  2 16  1  0  0  0  0
  3 26  1  0  0  0  0
  3 28  1  0  0  0  0
  4 17  1  0  0  0  0
  4 33  1  0  0  0  0
  5  9  1  0  0  0  0
  5 10  1  0  0  0  0
  5 13  1  0  0  0  0
  6 22  1  0  0  0  0
  6 24  1  0  0  0  0
  6 51  1  0  0  0  0
  7 20  1  0  0  0  0
  7 32  2  0  0  0  0
  8 26  2  0  0  0  0
  8 32  1  0  0  0  0
  9 11  1  0  0  0  0
  9 34  1  0  0  0  0
  9 35  1  0  0  0  0
 10 12  1  0  0  0  0
 10 36  1  0  0  0  0
 10 37  1  0  0  0  0
 11 12  1  0  0  0  0
 11 38  1  0  0  0  0
 11 39  1  0  0  0  0
 12 40  1  0  0  0  0
 12 41  1  0  0  0  0
 13 14  1  0  0  0  0
 13 42  1  0  0  0  0
 13 43  1  0  0  0  0
 14 15  1  0  0  0  0
 14 44  1  0  0  0  0
 14 45  1  0  0  0  0
 15 46  1  0  0  0  0
 15 47  1  0  0  0  0
 16 17  2  0  0  0  0
 16 18  1  0  0  0  0
 17 23  1  0  0  0  0
 18 20  2  0  0  0  0
 18 48  1  0  0  0  0
 19 20  1  0  0  0  0
 19 23  2  0  0  0  0
 19 26  1  0  0  0  0
 21 22  2  0  0  0  0
 21 25  1  0  0  0  0
 21 27  1  0  0  0  0
 22 29  1  0  0  0  0
 23 49  1  0  0  0  0
 24 25  2  0  0  0  0
 24 31  1  0  0  0  0
 25 50  1  0  0  0  0
 27 28  2  0  0  0  0
 28 30  1  0  0  0  0
 29 30  2  0  0  0  0
 29 52  1  0  0  0  0
 30 53  1  0  0  0  0
 31 54  1  0  0  0  0
 31 55  1  0  0  0  0
 31 56  1  0  0  0  0
 32 57  1  0  0  0  0
 33 58  1  0  0  0  0
 33 59  1  0  0  0  0
 33 60  1  0  0  0  0
M  END
> <PUBCHEM_COMPOUND_CID>
9933475

> <PUBCHEM_COMPOUND_CANONICALIZED>
1

> <PUBCHEM_CACTVS_COMPLEXITY>
625

> <PUBCHEM_CACTVS_HBOND_ACCEPTOR>
7

> <PUBCHEM_CACTVS_HBOND_DONOR>
1

> <PUBCHEM_CACTVS_ROTATABLE_BOND>
8

> <PUBCHEM_CACTVS_SUBSKEYS>
AAADceB7sQAAAAAAAAAAAAAAAAAAAWLAAAA8YIAAAAAAAFix/gAAHwAQAAAADAzhng431vfJlACgAyRjZACCiCkxIqAJ2SA+7JiNLuLE+duOPCru0BvK6Cfw8L8OIEABAgACQABAgAIEAASAAAAAAAAAAA==

> <PUBCHEM_IUPAC_OPENEYE_NAME>
4-[(4-fluoro-2-methyl-1H-indol-5-yl)oxy]-6-methoxy-7-(3-pyrrolidin-1-ylpropoxy)quinazoline

> <PUBCHEM_IUPAC_CAS_NAME>
4-[(4-fluoro-2-methyl-1H-indol-5-yl)oxy]-6-methoxy-7-[3-(1-pyrrolidinyl)propoxy]quinazoline

> <PUBCHEM_IUPAC_NAME_MARKUP>
4-[(4-fluoro-2-methyl-1<I>H</I>-indol-5-yl)oxy]-6-methoxy-7-(3-pyrrolidin-1-ylpropoxy)quinazoline

> <PUBCHEM_IUPAC_NAME>
4-[(4-fluoro-2-methyl-1H-indol-5-yl)oxy]-6-methoxy-7-(3-pyrrolidin-1-ylpropoxy)quinazoline

> <PUBCHEM_IUPAC_SYSTEMATIC_NAME>
4-[(4-fluoranyl-2-methyl-1H-indol-5-yl)oxy]-6-methoxy-7-(3-pyrrolidin-1-ylpropoxy)quinazoline

> <PUBCHEM_IUPAC_TRADITIONAL_NAME>
4-[(4-fluoro-2-methyl-1H-indol-5-yl)oxy]-6-methoxy-7-(3-pyrrolidinopropoxy)quinazoline

> <PUBCHEM_IUPAC_INCHI>
InChI=1S/C25H27FN4O3/c1-16-12-17-19(29-16)6-7-21(24(17)26)33-25-18-13-22(31-2)23(14-20(18)27-15-28-25)32-11-5-10-30-8-3-4-9-30/h6-7,12-15,29H,3-5,8-11H2,1-2H3

> <PUBCHEM_IUPAC_INCHIKEY>
XXJWYDDUDKYVKI-UHFFFAOYSA-N

> <PUBCHEM_XLOGP3_AA>
4.9

> <PUBCHEM_EXACT_MASS>
450.206719

> <PUBCHEM_MOLECULAR_FORMULA>
C25H27FN4O3

> <PUBCHEM_MOLECULAR_WEIGHT>
450.5

> <PUBCHEM_OPENEYE_CAN_SMILES>
CC1=CC2=C(N1)C=CC(=C2F)OC3=NC=NC4=CC(=C(C=C43)OC)OCCCN5CCCC5

> <PUBCHEM_OPENEYE_ISO_SMILES>
CC1=CC2=C(N1)C=CC(=C2F)OC3=NC=NC4=CC(=C(C=C43)OC)OCCCN5CCCC5

> <PUBCHEM_CACTVS_TPSA>
72.5

> <PUBCHEM_MONOISOTOPIC_WEIGHT>
450.206719

> <PUBCHEM_TOTAL_CHARGE>
0

> <PUBCHEM_HEAVY_ATOM_COUNT>
33

> <PUBCHEM_ATOM_DEF_STEREO_COUNT>
0

> <PUBCHEM_ATOM_UDEF_STEREO_COUNT>
0

> <PUBCHEM_BOND_DEF_STEREO_COUNT>
0

> <PUBCHEM_BOND_UDEF_STEREO_COUNT>
0

> <PUBCHEM_ISOTOPIC_ATOM_COUNT>
0

> <PUBCHEM_COMPONENT_COUNT>
1

> <PUBCHEM_CACTVS_TAUTO_COUNT>
-1

> <PUBCHEM_COORDINATE_TYPE>
1
5
255

> <PUBCHEM_BONDANNOTATIONS>
16  17  8
16  18  8
17  23  8
18  20  8
19  20  8
19  23  8
19  26  8
21  22  8
21  25  8
21  27  8
22  29  8
24  25  8
27  28  8
28  30  8
29  30  8
6  22  8
6  24  8
7  20  8
7  32  8
8  26  8
8  32  8

$$$$
59472121
  -OEChem-02182015172D

 58 61  0     0  0  0  0  0  0999 V2000
    8.5991   -4.7487    0.0000 S   0  0  0  0  0  0  0  0  0  0  0  0
    8.0991   -5.6148    0.0000 O   0  0  0  0  0  0  0  0  0  0  0  0
    9.0991   -3.8827    0.0000 O   0  0  0  0  0  0  0  0  0  0  0  0
    3.4600    0.3390    0.0000 O   0  0  0  0  0  0  0  0  0  0  0  0
    5.1350   -1.7487    0.0000 N   0  0  0  0  0  0  0  0  0  0  0  0
    3.4030   -2.7487    0.0000 N   0  0  0  0  0  0  0  0  0  0  0  0
    3.7690    1.2901    0.0000 N   0  0  0  0  0  0  0  0  0  0  0  0
    6.7134    5.4397    0.0000 N   0  0  0  0  0  0  0  0  0  0  0  0
    2.5369   -1.2487    0.0000 N   0  0  0  0  0  0  0  0  0  0  0  0
    9.4651   -5.2487    0.0000 C   0  0  0  0  0  0  0  0  0  0  0  0
    7.7331   -4.2487    0.0000 C   0  0  0  0  0  0  0  0  0  0  0  0
    9.4651   -6.2487    0.0000 C   0  0  0  0  0  0  0  0  0  0  0  0
   10.3312   -4.7487    0.0000 C   0  0  0  0  0  0  0  0  0  0  0  0
    7.7331   -3.2487    0.0000 C   0  0  0  0  0  0  0  0  0  0  0  0
    6.8671   -4.7487    0.0000 C   0  0  0  0  0  0  0  0  0  0  0  0
    6.0010   -3.2487    0.0000 C   0  0  0  0  0  0  0  0  0  0  0  0
    6.8671   -2.7487    0.0000 C   0  0  0  0  0  0  0  0  0  0  0  0
    6.0010   -4.2487    0.0000 C   0  0  0  0  0  0  0  0  0  0  0  0
    5.1350   -2.7487    0.0000 C   0  0  0  0  0  0  0  0  0  0  0  0
    4.2690   -1.2487    0.0000 C   0  0  0  0  0  0  0  0  0  0  0  0
    5.3568    2.0991    0.0000 C   0  0  0  0  0  0  0  0  0  0  0  0
    4.2690   -0.2487    0.0000 C   0  0  0  0  0  0  0  0  0  0  0  0
    4.7690    1.2901    0.0000 C   0  0  0  0  0  0  0  0  0  0  0  0
    6.5323    3.7172    0.0000 C   0  0  0  0  0  0  0  0  0  0  0  0
    4.2690   -3.2487    0.0000 C   0  0  0  0  0  0  0  0  0  0  0  0
    5.0780    0.3390    0.0000 C   0  0  0  0  0  0  0  0  0  0  0  0
    7.1201    4.5262    0.0000 C   0  0  0  0  0  0  0  0  0  0  0  0
    4.9500    3.0127    0.0000 C   0  0  0  0  0  0  0  0  0  0  0  0
    6.3513    1.9946    0.0000 C   0  0  0  0  0  0  0  0  0  0  0  0
    3.4030   -1.7487    0.0000 C   0  0  0  0  0  0  0  0  0  0  0  0
    5.5378    3.8217    0.0000 C   0  0  0  0  0  0  0  0  0  0  0  0
    6.9391    2.8036    0.0000 C   0  0  0  0  0  0  0  0  0  0  0  0
    7.3012    6.2487    0.0000 C   0  0  0  0  0  0  0  0  0  0  0  0
   10.0021   -5.5587    0.0000 H   0  0  0  0  0  0  0  0  0  0  0  0
    8.8451   -6.2487    0.0000 H   0  0  0  0  0  0  0  0  0  0  0  0
    9.4651   -6.8687    0.0000 H   0  0  0  0  0  0  0  0  0  0  0  0
   10.0851   -6.2487    0.0000 H   0  0  0  0  0  0  0  0  0  0  0  0
   10.6412   -5.2857    0.0000 H   0  0  0  0  0  0  0  0  0  0  0  0
   10.8681   -4.4387    0.0000 H   0  0  0  0  0  0  0  0  0  0  0  0
   10.0212   -4.2118    0.0000 H   0  0  0  0  0  0  0  0  0  0  0  0
    8.2700   -2.9387    0.0000 H   0  0  0  0  0  0  0  0  0  0  0  0
    6.8671   -5.3687    0.0000 H   0  0  0  0  0  0  0  0  0  0  0  0
    6.8671   -2.1287    0.0000 H   0  0  0  0  0  0  0  0  0  0  0  0
    5.4641   -4.5587    0.0000 H   0  0  0  0  0  0  0  0  0  0  0  0
    4.2690   -3.8687    0.0000 H   0  0  0  0  0  0  0  0  0  0  0  0
    5.6677    0.1475    0.0000 H   0  0  0  0  0  0  0  0  0  0  0  0
    7.5508    4.0802    0.0000 H   0  0  0  0  0  0  0  0  0  0  0  0
    7.6341    4.8729    0.0000 H   0  0  0  0  0  0  0  0  0  0  0  0
    4.3334    3.0775    0.0000 H   0  0  0  0  0  0  0  0  0  0  0  0
    6.6035    1.4282    0.0000 H   0  0  0  0  0  0  0  0  0  0  0  0
    5.2856    4.3881    0.0000 H   0  0  0  0  0  0  0  0  0  0  0  0
    7.5557    2.7388    0.0000 H   0  0  0  0  0  0  0  0  0  0  0  0
    6.0968    5.5045    0.0000 H   0  0  0  0  0  0  0  0  0  0  0  0
    2.0000   -1.5587    0.0000 H   0  0  0  0  0  0  0  0  0  0  0  0
    2.5369   -0.6287    0.0000 H   0  0  0  0  0  0  0  0  0  0  0  0
    7.8028    5.8843    0.0000 H   0  0  0  0  0  0  0  0  0  0  0  0
    7.6656    6.7503    0.0000 H   0  0  0  0  0  0  0  0  0  0  0  0
    6.7996    6.6132    0.0000 H   0  0  0  0  0  0  0  0  0  0  0  0
  1  2  2  0  0  0  0
  1  3  2  0  0  0  0
  1 10  1  0  0  0  0
  1 11  1  0  0  0  0
  4  7  1  0  0  0  0
  4 22  1  0  0  0  0
  5 19  1  0  0  0  0
  5 20  2  0  0  0  0
  6 25  1  0  0  0  0
  6 30  2  0  0  0  0
  7 23  2  0  0  0  0
  8 27  1  0  0  0  0
  8 33  1  0  0  0  0
  8 53  1  0  0  0  0
  9 30  1  0  0  0  0
  9 54  1  0  0  0  0
  9 55  1  0  0  0  0
 10 12  1  0  0  0  0
 10 13  1  0  0  0  0
 10 34  1  0  0  0  0
 11 14  2  0  0  0  0
 11 15  1  0  0  0  0
 12 35  1  0  0  0  0
 12 36  1  0  0  0  0
 12 37  1  0  0  0  0
 13 38  1  0  0  0  0
 13 39  1  0  0  0  0
 13 40  1  0  0  0  0
 14 17  1  0  0  0  0
 14 41  1  0  0  0  0
 15 18  2  0  0  0  0
 15 42  1  0  0  0  0
 16 17  2  0  0  0  0
 16 18  1  0  0  0  0
 16 19  1  0  0  0  0
 17 43  1  0  0  0  0
 18 44  1  0  0  0  0
 19 25  2  0  0  0  0
 20 22  1  0  0  0  0
 20 30  1  0  0  0  0
 21 23  1  0  0  0  0
 21 28  2  0  0  0  0
 21 29  1  0  0  0  0
 22 26  2  0  0  0  0
 23 26  1  0  0  0  0
 24 27  1  0  0  0  0
 24 31  2  0  0  0  0
 24 32  1  0  0  0  0
 25 45  1  0  0  0  0
 26 46  1  0  0  0  0
 27 47  1  0  0  0  0
 27 48  1  0  0  0  0
 28 31  1  0  0  0  0
 28 49  1  0  0  0  0
 29 32  2  0  0  0  0
 29 50  1  0  0  0  0
 31 51  1  0  0  0  0
 32 52  1  0  0  0  0
 33 56  1  0  0  0  0
 33 57  1  0  0  0  0
 33 58  1  0  0  0  0
M  END
> <PUBCHEM_COMPOUND_CID>
59472121

> <PUBCHEM_COMPOUND_CANONICALIZED>
1

> <PUBCHEM_CACTVS_COMPLEXITY>
714

> <PUBCHEM_CACTVS_HBOND_ACCEPTOR>
8

> <PUBCHEM_CACTVS_HBOND_DONOR>
2

> <PUBCHEM_CACTVS_ROTATABLE_BOND>
7

> <PUBCHEM_CACTVS_SUBSKEYS>
AAADceB7sABAAAAAAAAAAAAAAAAAAWAAAAA8YIAAAAAAAAAB9AAAHgQUAAAADAzF3gS/tZLYEAqpA7Z3ZnTCgC03OjAo2Lm+fNqKZvrgkbOUMYhmgBr4yWeYyOCOUAAAAAAAAACgAAAAAAAAAAAAAAAAAA==

> <PUBCHEM_IUPAC_OPENEYE_NAME>
5-(4-isopropylsulfonylphenyl)-3-[3-[4-(methylaminomethyl)phenyl]isoxazol-5-yl]pyrazin-2-amine

> <PUBCHEM_IUPAC_CAS_NAME>
3-[3-[4-(methylaminomethyl)phenyl]-5-isoxazolyl]-5-(4-propan-2-ylsulfonylphenyl)-2-pyrazinamine

> <PUBCHEM_IUPAC_NAME_MARKUP>
3-[3-[4-(methylaminomethyl)phenyl]-1,2-oxazol-5-yl]-5-(4-propan-2-ylsulfonylphenyl)pyrazin-2-amine

> <PUBCHEM_IUPAC_NAME>
3-[3-[4-(methylaminomethyl)phenyl]-1,2-oxazol-5-yl]-5-(4-propan-2-ylsulfonylphenyl)pyrazin-2-amine

> <PUBCHEM_IUPAC_SYSTEMATIC_NAME>
3-[3-[4-(methylaminomethyl)phenyl]-1,2-oxazol-5-yl]-5-(4-propan-2-ylsulfonylphenyl)pyrazin-2-amine

> <PUBCHEM_IUPAC_TRADITIONAL_NAME>
[4-[5-[3-amino-6-(4-isopropylsulfonylphenyl)pyrazin-2-yl]isoxazol-3-yl]benzyl]-methyl-amine

> <PUBCHEM_IUPAC_INCHI>
InChI=1S/C24H25N5O3S/c1-15(2)33(30,31)19-10-8-18(9-11-19)21-14-27-24(25)23(28-21)22-12-20(29-32-22)17-6-4-16(5-7-17)13-26-3/h4-12,14-15,26H,13H2,1-3H3,(H2,25,27)

> <PUBCHEM_IUPAC_INCHIKEY>
JZCWLJDSIRUGIN-UHFFFAOYSA-N

> <PUBCHEM_XLOGP3_AA>
2.3

> <PUBCHEM_EXACT_MASS>
463.167811

> <PUBCHEM_MOLECULAR_FORMULA>
C24H25N5O3S

> <PUBCHEM_MOLECULAR_WEIGHT>
463.6

> <PUBCHEM_OPENEYE_CAN_SMILES>
CC(C)S(=O)(=O)C1=CC=C(C=C1)C2=CN=C(C(=N2)C3=CC(=NO3)C4=CC=C(C=C4)CNC)N

> <PUBCHEM_OPENEYE_ISO_SMILES>
CC(C)S(=O)(=O)C1=CC=C(C=C1)C2=CN=C(C(=N2)C3=CC(=NO3)C4=CC=C(C=C4)CNC)N

> <PUBCHEM_CACTVS_TPSA>
132

> <PUBCHEM_MONOISOTOPIC_WEIGHT>
463.167811

> <PUBCHEM_TOTAL_CHARGE>
0

> <PUBCHEM_HEAVY_ATOM_COUNT>
33

> <PUBCHEM_ATOM_DEF_STEREO_COUNT>
0

> <PUBCHEM_ATOM_UDEF_STEREO_COUNT>
0

> <PUBCHEM_BOND_DEF_STEREO_COUNT>
0

> <PUBCHEM_BOND_UDEF_STEREO_COUNT>
0

> <PUBCHEM_ISOTOPIC_ATOM_COUNT>
0

> <PUBCHEM_COMPONENT_COUNT>
1

> <PUBCHEM_CACTVS_TAUTO_COUNT>
-1

> <PUBCHEM_COORDINATE_TYPE>
1
5
255

> <PUBCHEM_BONDANNOTATIONS>
11  14  8
11  15  8
14  17  8
15  18  8
16  17  8
16  18  8
19  25  8
20  30  8
21  28  8
21  29  8
22  26  8
23  26  8
24  31  8
24  32  8
28  31  8
29  32  8
4  22  8
4  7  8
5  19  8
5  20  8
6  25  8
6  30  8
7  23  8

$$$$
56649450
  -OEChem-02182015172D

 52 54  0     1  0  0  0  0  0999 V2000
    5.8688    0.7346    0.0000 S   0  0  0  0  0  0  0  0  0  0  0  0
    7.7054   -5.2599    0.0000 F   0  0  0  0  0  0  0  0  0  0  0  0
    8.7054   -4.2599    0.0000 F   0  0  0  0  0  0  0  0  0  0  0  0
    6.7054   -4.2599    0.0000 F   0  0  0  0  0  0  0  0  0  0  0  0
    5.1650    3.0357    0.0000 O   0  0  0  0  0  0  0  0  0  0  0  0
    2.9016    1.1516    0.0000 O   0  0  0  0  0  0  0  0  0  0  0  0
    3.0827    2.8742    0.0000 N   0  0  0  0  0  0  0  0  0  0  0  0
    4.4839    1.8561    0.0000 N   0  0  0  0  0  0  0  0  0  0  0  0
    4.9839    4.7583    0.0000 N   0  0  0  0  0  0  0  0  0  0  0  0
    8.5714   -1.7599    0.0000 N   0  0  0  0  0  0  0  0  0  0  0  0
    4.3907    0.0765    0.0000 N   0  0  0  0  0  0  0  0  0  0  0  0
    3.5827    3.7402    0.0000 C   0  0  1  0  0  0  0  0  0  0  0  0
    2.9136    4.4834    0.0000 C   0  0  0  0  0  0  0  0  0  0  0  0
    2.0000    4.0766    0.0000 C   0  0  0  0  0  0  0  0  0  0  0  0
    2.1045    3.0821    0.0000 C   0  0  0  0  0  0  0  0  0  0  0  0
    4.5772    3.8447    0.0000 C   0  0  0  0  0  0  0  0  0  0  0  0
    3.4894    1.9606    0.0000 C   0  0  0  0  0  0  0  0  0  0  0  0
    7.7054   -3.2599    0.0000 C   0  0  0  0  0  0  0  0  0  0  0  0
    7.7054   -2.2599    0.0000 C   0  0  0  0  0  0  0  0  0  0  0  0
    7.7054   -4.2599    0.0000 C   0  0  0  0  0  0  0  0  0  0  0  0
    8.7054   -3.2599    0.0000 C   0  0  0  0  0  0  0  0  0  0  0  0
    6.7054   -3.2599    0.0000 C   0  0  0  0  0  0  0  0  0  0  0  0
    6.8394   -1.7599    0.0000 C   0  0  0  0  0  0  0  0  0  0  0  0
    6.8394   -0.7599    0.0000 C   0  0  0  0  0  0  0  0  0  0  0  0
    4.8907    0.9426    0.0000 C   0  0  0  0  0  0  0  0  0  0  0  0
    5.9734   -0.2599    0.0000 C   0  0  0  0  0  0  0  0  0  0  0  0
    5.0598   -0.6666    0.0000 C   0  0  0  0  0  0  0  0  0  0  0  0
    7.7054   -0.2599    0.0000 C   0  0  0  0  0  0  0  0  0  0  0  0
    8.5714   -0.7599    0.0000 C   0  0  0  0  0  0  0  0  0  0  0  0
    4.8519   -1.6448    0.0000 C   0  0  0  0  0  0  0  0  0  0  0  0
    3.9204    3.2202    0.0000 H   0  0  0  0  0  0  0  0  0  0  0  0
    3.4151    4.8478    0.0000 H   0  0  0  0  0  0  0  0  0  0  0  0
    2.6035    5.0203    0.0000 H   0  0  0  0  0  0  0  0  0  0  0  0
    1.8084    4.6663    0.0000 H   0  0  0  0  0  0  0  0  0  0  0  0
    1.3936    3.9477    0.0000 H   0  0  0  0  0  0  0  0  0  0  0  0
    1.4845    3.0821    0.0000 H   0  0  0  0  0  0  0  0  0  0  0  0
    2.0397    2.4655    0.0000 H   0  0  0  0  0  0  0  0  0  0  0  0
    4.8484    2.3577    0.0000 H   0  0  0  0  0  0  0  0  0  0  0  0
    8.7054   -3.8799    0.0000 H   0  0  0  0  0  0  0  0  0  0  0  0
    9.3254   -3.2599    0.0000 H   0  0  0  0  0  0  0  0  0  0  0  0
    8.7054   -2.6399    0.0000 H   0  0  0  0  0  0  0  0  0  0  0  0
    6.7054   -2.6399    0.0000 H   0  0  0  0  0  0  0  0  0  0  0  0
    6.0854   -3.2599    0.0000 H   0  0  0  0  0  0  0  0  0  0  0  0
    6.7054   -3.8799    0.0000 H   0  0  0  0  0  0  0  0  0  0  0  0
    5.6005    4.8231    0.0000 H   0  0  0  0  0  0  0  0  0  0  0  0
    4.6195    5.2599    0.0000 H   0  0  0  0  0  0  0  0  0  0  0  0
    6.3024   -2.0699    0.0000 H   0  0  0  0  0  0  0  0  0  0  0  0
    7.7054    0.3601    0.0000 H   0  0  0  0  0  0  0  0  0  0  0  0
    9.1084   -0.4499    0.0000 H   0  0  0  0  0  0  0  0  0  0  0  0
    4.2454   -1.5158    0.0000 H   0  0  0  0  0  0  0  0  0  0  0  0
    4.7230   -2.2512    0.0000 H   0  0  0  0  0  0  0  0  0  0  0  0
    5.4583   -1.7737    0.0000 H   0  0  0  0  0  0  0  0  0  0  0  0
  1 25  1  0  0  0  0
  1 26  1  0  0  0  0
  2 20  1  0  0  0  0
  3 20  1  0  0  0  0
  4 20  1  0  0  0  0
  5 16  2  0  0  0  0
  6 17  2  0  0  0  0
  7 12  1  0  0  0  0
  7 15  1  0  0  0  0
  7 17  1  0  0  0  0
  8 17  1  0  0  0  0
  8 25  1  0  0  0  0
  8 38  1  0  0  0  0
  9 16  1  0  0  0  0
  9 45  1  0  0  0  0
  9 46  1  0  0  0  0
 10 19  2  0  0  0  0
 10 29  1  0  0  0  0
 11 25  2  0  0  0  0
 11 27  1  0  0  0  0
 12 13  1  0  0  0  0
 12 16  1  1  0  0  0
 12 31  1  0  0  0  0
 13 14  1  0  0  0  0
 13 32  1  0  0  0  0
 13 33  1  0  0  0  0
 14 15  1  0  0  0  0
 14 34  1  0  0  0  0
 14 35  1  0  0  0  0
 15 36  1  0  0  0  0
 15 37  1  0  0  0  0
 18 19  1  0  0  0  0
 18 20  1  0  0  0  0
 18 21  1  0  0  0  0
 18 22  1  0  0  0  0
 19 23  1  0  0  0  0
 21 39  1  0  0  0  0
 21 40  1  0  0  0  0
 21 41  1  0  0  0  0
 22 42  1  0  0  0  0
 22 43  1  0  0  0  0
 22 44  1  0  0  0  0
 23 24  2  0  0  0  0
 23 47  1  0  0  0  0
 24 26  1  0  0  0  0
 24 28  1  0  0  0  0
 26 27  2  0  0  0  0
 27 30  1  0  0  0  0
 28 29  2  0  0  0  0
 28 48  1  0  0  0  0
 29 49  1  0  0  0  0
 30 50  1  0  0  0  0
 30 51  1  0  0  0  0
 30 52  1  0  0  0  0
M  END
> <PUBCHEM_COMPOUND_CID>
56649450

> <PUBCHEM_COMPOUND_CANONICALIZED>
1

> <PUBCHEM_CACTVS_COMPLEXITY>
663

> <PUBCHEM_CACTVS_HBOND_ACCEPTOR>
8

> <PUBCHEM_CACTVS_HBOND_DONOR>
2

> <PUBCHEM_CACTVS_ROTATABLE_BOND>
4

> <PUBCHEM_CACTVS_SUBSKEYS>
AAADceB7sYBAAAAAAAAAAAAAAAAAAWLAAAAsAAAAAAAAAAAB4AAAHwQQAAAADijB3hQ/kZPIEAisAzV3dACC8KlxCjkJ2DW4ZJiIYHLgkbGUIAholwLIyCcYgcAPAAAAAAAAAAAAAAAAAAAAAAAAAAAAAA==

> <PUBCHEM_IUPAC_OPENEYE_NAME>
(2S)-N1-[4-methyl-5-[2-(2,2,2-trifluoro-1,1-dimethyl-ethyl)-4-pyridyl]thiazol-2-yl]pyrrolidine-1,2-dicarboxamide

> <PUBCHEM_IUPAC_CAS_NAME>
(2S)-N1-[4-methyl-5-[2-(1,1,1-trifluoro-2-methylpropan-2-yl)-4-pyridinyl]-2-thiazolyl]pyrrolidine-1,2-dicarboxamide

> <PUBCHEM_IUPAC_NAME_MARKUP>
(2<I>S</I>)-1-<I>N</I>-[4-methyl-5-[2-(1,1,1-trifluoro-2-methylpropan-2-yl)pyridin-4-yl]-1,3-thiazol-2-yl]pyrrolidine-1,2-dicarboxamide

> <PUBCHEM_IUPAC_NAME>
(2S)-1-N-[4-methyl-5-[2-(1,1,1-trifluoro-2-methylpropan-2-yl)pyridin-4-yl]-1,3-thiazol-2-yl]pyrrolidine-1,2-dicarboxamide

> <PUBCHEM_IUPAC_SYSTEMATIC_NAME>
(2S)-N1-[4-methyl-5-[2-[1,1,1-tris(fluoranyl)-2-methyl-propan-2-yl]pyridin-4-yl]-1,3-thiazol-2-yl]pyrrolidine-1,2-dicarboxamide

> <PUBCHEM_IUPAC_TRADITIONAL_NAME>
(2S)-N-[4-methyl-5-[2-(2,2,2-trifluoro-1,1-dimethyl-ethyl)-4-pyridyl]thiazol-2-yl]pyrrolidine-1,2-dicarboxamide

> <PUBCHEM_IUPAC_INCHI>
InChI=1S/C19H22F3N5O2S/c1-10-14(11-6-7-24-13(9-11)18(2,3)19(20,21)22)30-16(25-10)26-17(29)27-8-4-5-12(27)15(23)28/h6-7,9,12H,4-5,8H2,1-3H3,(H2,23,28)(H,25,26,29)/t12-/m0/s1

> <PUBCHEM_IUPAC_INCHIKEY>
STUWGJZDJHPWGZ-LBPRGKRZSA-N

> <PUBCHEM_XLOGP3_AA>
3.2

> <PUBCHEM_EXACT_MASS>
441.144631

> <PUBCHEM_MOLECULAR_FORMULA>
C19H22F3N5O2S

> <PUBCHEM_MOLECULAR_WEIGHT>
441.5

> <PUBCHEM_OPENEYE_CAN_SMILES>
CC1=C(SC(=N1)NC(=O)N2CCCC2C(=O)N)C3=CC(=NC=C3)C(C)(C)C(F)(F)F

> <PUBCHEM_OPENEYE_ISO_SMILES>
CC1=C(SC(=N1)NC(=O)N2CCC[C@H]2C(=O)N)C3=CC(=NC=C3)C(C)(C)C(F)(F)F

> <PUBCHEM_CACTVS_TPSA>
129

> <PUBCHEM_MONOISOTOPIC_WEIGHT>
441.144631

> <PUBCHEM_TOTAL_CHARGE>
0

> <PUBCHEM_HEAVY_ATOM_COUNT>
30

> <PUBCHEM_ATOM_DEF_STEREO_COUNT>
1

> <PUBCHEM_ATOM_UDEF_STEREO_COUNT>
0

> <PUBCHEM_BOND_DEF_STEREO_COUNT>
0

> <PUBCHEM_BOND_UDEF_STEREO_COUNT>
0

> <PUBCHEM_ISOTOPIC_ATOM_COUNT>
0

> <PUBCHEM_COMPONENT_COUNT>
1

> <PUBCHEM_CACTVS_TAUTO_COUNT>
-1

> <PUBCHEM_COORDINATE_TYPE>
1
5
255

> <PUBCHEM_BONDANNOTATIONS>
1  25  8
1  26  8
10  19  8
10  29  8
11  25  8
11  27  8
12  16  5
19  23  8
23  24  8
24  28  8
26  27  8
28  29  8

$$$$
46926973
  -OEChem-02182015172D

 50 53  0     0  0  0  0  0  0999 V2000
    5.4641    0.5000    0.0000 O   0  0  0  0  0  0  0  0  0  0  0  0
    4.5981   -2.0000    0.0000 N   0  0  0  0  0  0  0  0  0  0  0  0
    4.5981    2.0000    0.0000 N   0  0  0  0  0  0  0  0  0  0  0  0
    3.7320   -5.5000    0.0000 N   0  0  0  0  0  0  0  0  0  0  0  0
    5.4641    3.5000    0.0000 N   0  0  0  0  0  0  0  0  0  0  0  0
    8.9282    3.5000    0.0000 N   0  0  0  0  0  0  0  0  0  0  0  0
    8.9282    5.5000    0.0000 N   0  0  0  0  0  0  0  0  0  0  0  0
    3.7320   -0.5000    0.0000 C   0  0  0  0  0  0  0  0  0  0  0  0
    2.8660   -2.0000    0.0000 C   0  0  0  0  0  0  0  0  0  0  0  0
    3.7320   -2.5000    0.0000 C   0  0  0  0  0  0  0  0  0  0  0  0
    3.7320    0.5000    0.0000 C   0  0  0  0  0  0  0  0  0  0  0  0
    2.8660   -1.0000    0.0000 C   0  0  0  0  0  0  0  0  0  0  0  0
    3.7320   -3.5000    0.0000 C   0  0  0  0  0  0  0  0  0  0  0  0
    4.5981   -1.0000    0.0000 C   0  0  0  0  0  0  0  0  0  0  0  0
    2.0000   -2.5000    0.0000 C   0  0  0  0  0  0  0  0  0  0  0  0
    4.5981    1.0000    0.0000 C   0  0  0  0  0  0  0  0  0  0  0  0
    2.8660   -4.0000    0.0000 C   0  0  0  0  0  0  0  0  0  0  0  0
    4.5981   -4.0000    0.0000 C   0  0  0  0  0  0  0  0  0  0  0  0
    2.8660   -5.0000    0.0000 C   0  0  0  0  0  0  0  0  0  0  0  0
    5.4641    2.5000    0.0000 C   0  0  0  0  0  0  0  0  0  0  0  0
    4.5981   -5.0000    0.0000 C   0  0  0  0  0  0  0  0  0  0  0  0
    7.1962    3.5000    0.0000 C   0  0  0  0  0  0  0  0  0  0  0  0
    6.3301    2.0000    0.0000 C   0  0  0  0  0  0  0  0  0  0  0  0
    7.1962    2.5000    0.0000 C   0  0  0  0  0  0  0  0  0  0  0  0
    2.0000   -5.5000    0.0000 C   0  0  0  0  0  0  0  0  0  0  0  0
    6.3301    4.0000    0.0000 C   0  0  0  0  0  0  0  0  0  0  0  0
    8.0622    4.0000    0.0000 C   0  0  0  0  0  0  0  0  0  0  0  0
    8.0622    5.0000    0.0000 C   0  0  0  0  0  0  0  0  0  0  0  0
    9.7942    4.0000    0.0000 C   0  0  0  0  0  0  0  0  0  0  0  0
    9.7942    5.0000    0.0000 C   0  0  0  0  0  0  0  0  0  0  0  0
    3.5200    1.0826    0.0000 H   0  0  0  0  0  0  0  0  0  0  0  0
    3.1215    0.3923    0.0000 H   0  0  0  0  0  0  0  0  0  0  0  0
    2.3291   -0.6900    0.0000 H   0  0  0  0  0  0  0  0  0  0  0  0
    5.1350   -0.6900    0.0000 H   0  0  0  0  0  0  0  0  0  0  0  0
    1.6900   -1.9631    0.0000 H   0  0  0  0  0  0  0  0  0  0  0  0
    1.4631   -2.8100    0.0000 H   0  0  0  0  0  0  0  0  0  0  0  0
    2.3100   -3.0369    0.0000 H   0  0  0  0  0  0  0  0  0  0  0  0
    2.3291   -3.6900    0.0000 H   0  0  0  0  0  0  0  0  0  0  0  0
    5.1350   -3.6900    0.0000 H   0  0  0  0  0  0  0  0  0  0  0  0
    4.0611    2.3100    0.0000 H   0  0  0  0  0  0  0  0  0  0  0  0
    5.1350   -5.3100    0.0000 H   0  0  0  0  0  0  0  0  0  0  0  0
    6.3301    1.3800    0.0000 H   0  0  0  0  0  0  0  0  0  0  0  0
    7.7331    2.1900    0.0000 H   0  0  0  0  0  0  0  0  0  0  0  0
    1.6900   -4.9631    0.0000 H   0  0  0  0  0  0  0  0  0  0  0  0
    1.4631   -5.8100    0.0000 H   0  0  0  0  0  0  0  0  0  0  0  0
    2.3100   -6.0369    0.0000 H   0  0  0  0  0  0  0  0  0  0  0  0
    6.3301    4.6200    0.0000 H   0  0  0  0  0  0  0  0  0  0  0  0
    7.5252    5.3100    0.0000 H   0  0  0  0  0  0  0  0  0  0  0  0
   10.3312    3.6900    0.0000 H   0  0  0  0  0  0  0  0  0  0  0  0
   10.3312    5.3100    0.0000 H   0  0  0  0  0  0  0  0  0  0  0  0
  1 16  2  0  0  0  0
  2 10  2  0  0  0  0
  2 14  1  0  0  0  0
  3 16  1  0  0  0  0
  3 20  1  0  0  0  0
  3 40  1  0  0  0  0
  4 19  2  0  0  0  0
  4 21  1  0  0  0  0
  5 20  2  0  0  0  0
  5 26  1  0  0  0  0
  6 27  2  0  0  0  0
  6 29  1  0  0  0  0
  7 28  2  0  0  0  0
  7 30  1  0  0  0  0
  8 11  1  0  0  0  0
  8 12  1  0  0  0  0
  8 14  2  0  0  0  0
  9 10  1  0  0  0  0
  9 12  2  0  0  0  0
  9 15  1  0  0  0  0
 10 13  1  0  0  0  0
 11 16  1  0  0  0  0
 11 31  1  0  0  0  0
 11 32  1  0  0  0  0
 12 33  1  0  0  0  0
 13 17  2  0  0  0  0
 13 18  1  0  0  0  0
 14 34  1  0  0  0  0
 15 35  1  0  0  0  0
 15 36  1  0  0  0  0
 15 37  1  0  0  0  0
 17 19  1  0  0  0  0
 17 38  1  0  0  0  0
 18 21  2  0  0  0  0
 18 39  1  0  0  0  0
 19 25  1  0  0  0  0
 20 23  1  0  0  0  0
 21 41  1  0  0  0  0
 22 24  1  0  0  0  0
 22 26  2  0  0  0  0
 22 27  1  0  0  0  0
 23 24  2  0  0  0  0
 23 42  1  0  0  0  0
 24 43  1  0  0  0  0
 25 44  1  0  0  0  0
 25 45  1  0  0  0  0
 25 46  1  0  0  0  0
 26 47  1  0  0  0  0
 27 28  1  0  0  0  0
 28 48  1  0  0  0  0
 29 30  2  0  0  0  0
 29 49  1  0  0  0  0
 30 50  1  0  0  0  0
M  END
> <PUBCHEM_COMPOUND_CID>
46926973

> <PUBCHEM_COMPOUND_CANONICALIZED>
1

> <PUBCHEM_CACTVS_COMPLEXITY>
560

> <PUBCHEM_CACTVS_HBOND_ACCEPTOR>
6

> <PUBCHEM_CACTVS_HBOND_DONOR>
1

> <PUBCHEM_CACTVS_ROTATABLE_BOND>
5

> <PUBCHEM_CACTVS_SUBSKEYS>
AAADceB7oAAAAAAAAAAAAAAAAAAAAAAAAAAsWLFgAAAAAAAB/gAAHgAQAAAADAjBngQ/sJLIEACoAzd3dACCgC0xEiAJ2CE4dJiIYPLA3ZGUIAholQLIyCcciMCOAAAAAAAAAAAAAAAAAAAAAAAAAAAAAA==

> <PUBCHEM_IUPAC_OPENEYE_NAME>
2-[5-methyl-6-(2-methyl-4-pyridyl)-3-pyridyl]-N-(5-pyrazin-2-yl-2-pyridyl)acetamide

> <PUBCHEM_IUPAC_CAS_NAME>
2-[5-methyl-6-(2-methyl-4-pyridinyl)-3-pyridinyl]-N-[5-(2-pyrazinyl)-2-pyridinyl]acetamide

> <PUBCHEM_IUPAC_NAME_MARKUP>
2-[5-methyl-6-(2-methylpyridin-4-yl)pyridin-3-yl]-<I>N</I>-(5-pyrazin-2-ylpyridin-2-yl)acetamide

> <PUBCHEM_IUPAC_NAME>
2-[5-methyl-6-(2-methylpyridin-4-yl)pyridin-3-yl]-N-(5-pyrazin-2-ylpyridin-2-yl)acetamide

> <PUBCHEM_IUPAC_SYSTEMATIC_NAME>
2-[5-methyl-6-(2-methylpyridin-4-yl)pyridin-3-yl]-N-(5-pyrazin-2-ylpyridin-2-yl)ethanamide

> <PUBCHEM_IUPAC_TRADITIONAL_NAME>
2-[5-methyl-6-(2-methyl-4-pyridyl)-3-pyridyl]-N-(5-pyrazin-2-yl-2-pyridyl)acetamide

> <PUBCHEM_IUPAC_INCHI>
InChI=1S/C23H20N6O/c1-15-9-17(12-28-23(15)18-5-6-25-16(2)10-18)11-22(30)29-21-4-3-19(13-27-21)20-14-24-7-8-26-20/h3-10,12-14H,11H2,1-2H3,(H,27,29,30)

> <PUBCHEM_IUPAC_INCHIKEY>
XXYGTCZJJLTAGH-UHFFFAOYSA-N

> <PUBCHEM_XLOGP3_AA>
1.8

> <PUBCHEM_EXACT_MASS>
396.169859

> <PUBCHEM_MOLECULAR_FORMULA>
C23H20N6O

> <PUBCHEM_MOLECULAR_WEIGHT>
396.4

> <PUBCHEM_OPENEYE_CAN_SMILES>
CC1=CC(=CN=C1C2=CC(=NC=C2)C)CC(=O)NC3=NC=C(C=C3)C4=NC=CN=C4

> <PUBCHEM_OPENEYE_ISO_SMILES>
CC1=CC(=CN=C1C2=CC(=NC=C2)C)CC(=O)NC3=NC=C(C=C3)C4=NC=CN=C4

> <PUBCHEM_CACTVS_TPSA>
93.6

> <PUBCHEM_MONOISOTOPIC_WEIGHT>
396.169859

> <PUBCHEM_TOTAL_CHARGE>
0

> <PUBCHEM_HEAVY_ATOM_COUNT>
30

> <PUBCHEM_ATOM_DEF_STEREO_COUNT>
0

> <PUBCHEM_ATOM_UDEF_STEREO_COUNT>
0

> <PUBCHEM_BOND_DEF_STEREO_COUNT>
0

> <PUBCHEM_BOND_UDEF_STEREO_COUNT>
0

> <PUBCHEM_ISOTOPIC_ATOM_COUNT>
0

> <PUBCHEM_COMPONENT_COUNT>
1

> <PUBCHEM_CACTVS_TAUTO_COUNT>
-1

> <PUBCHEM_COORDINATE_TYPE>
1
5
255

> <PUBCHEM_BONDANNOTATIONS>
13  17  8
13  18  8
17  19  8
18  21  8
2  10  8
2  14  8
20  23  8
22  24  8
22  26  8
23  24  8
27  28  8
29  30  8
4  19  8
4  21  8
5  20  8
5  26  8
6  27  8
6  29  8
7  28  8
7  30  8
8  12  8
8  14  8
9  10  8
9  12  8

$$$$
23725625
  -OEChem-02182015172D

 55 59  0     0  0  0  0  0  0999 V2000
    8.1301   -0.5670    0.0000 F   0  0  0  0  0  0  0  0  0  0  0  0
    2.0680   -3.0670    0.0000 O   0  0  0  0  0  0  0  0  0  0  0  0
    7.2641   -2.0670    0.0000 O   0  0  0  0  0  0  0  0  0  0  0  0
    4.6660    5.4330    0.0000 O   0  0  0  0  0  0  0  0  0  0  0  0
    3.8000   -3.0670    0.0000 N   0  0  0  0  0  0  0  0  0  0  0  0
    5.5321   -2.0670    0.0000 N   0  0  0  0  0  0  0  0  0  0  0  0
    5.5321    2.9330    0.0000 N   0  0  0  0  0  0  0  0  0  0  0  0
    5.5321    3.9330    0.0000 N   0  0  0  0  0  0  0  0  0  0  0  0
    2.9340   -4.5670    0.0000 C   0  0  0  0  0  0  0  0  0  0  0  0
    2.4340   -5.4330    0.0000 C   0  0  0  0  0  0  0  0  0  0  0  0
    3.4340   -5.4330    0.0000 C   0  0  0  0  0  0  0  0  0  0  0  0
    2.9340   -3.5670    0.0000 C   0  0  0  0  0  0  0  0  0  0  0  0
    3.8000   -2.0670    0.0000 C   0  0  0  0  0  0  0  0  0  0  0  0
    4.6660   -3.5670    0.0000 C   0  0  0  0  0  0  0  0  0  0  0  0
    4.6660   -1.5670    0.0000 C   0  0  0  0  0  0  0  0  0  0  0  0
    5.5321   -3.0670    0.0000 C   0  0  0  0  0  0  0  0  0  0  0  0
    6.3981   -1.5670    0.0000 C   0  0  0  0  0  0  0  0  0  0  0  0
    6.3981   -0.5670    0.0000 C   0  0  0  0  0  0  0  0  0  0  0  0
    5.5321   -0.0670    0.0000 C   0  0  0  0  0  0  0  0  0  0  0  0
    5.5321    0.9330    0.0000 C   0  0  0  0  0  0  0  0  0  0  0  0
    7.2641   -0.0670    0.0000 C   0  0  0  0  0  0  0  0  0  0  0  0
    4.6660    1.4330    0.0000 C   0  0  0  0  0  0  0  0  0  0  0  0
    6.3981    1.4330    0.0000 C   0  0  0  0  0  0  0  0  0  0  0  0
    7.2641    0.9330    0.0000 C   0  0  0  0  0  0  0  0  0  0  0  0
    4.6660    2.4330    0.0000 C   0  0  0  0  0  0  0  0  0  0  0  0
    3.8000    2.9330    0.0000 C   0  0  0  0  0  0  0  0  0  0  0  0
    3.8000    3.9330    0.0000 C   0  0  0  0  0  0  0  0  0  0  0  0
    2.9061    2.3984    0.0000 C   0  0  0  0  0  0  0  0  0  0  0  0
    4.6660    4.4330    0.0000 C   0  0  0  0  0  0  0  0  0  0  0  0
    2.9061    4.4677    0.0000 C   0  0  0  0  0  0  0  0  0  0  0  0
    2.0000    2.9122    0.0000 C   0  0  0  0  0  0  0  0  0  0  0  0
    2.0000    3.9538    0.0000 C   0  0  0  0  0  0  0  0  0  0  0  0
    3.5329   -4.4065    0.0000 H   0  0  0  0  0  0  0  0  0  0  0  0
    1.8514   -5.2210    0.0000 H   0  0  0  0  0  0  0  0  0  0  0  0
    2.3263   -6.0436    0.0000 H   0  0  0  0  0  0  0  0  0  0  0  0
    3.5416   -6.0436    0.0000 H   0  0  0  0  0  0  0  0  0  0  0  0
    4.0166   -5.2210    0.0000 H   0  0  0  0  0  0  0  0  0  0  0  0
    3.5880   -1.4844    0.0000 H   0  0  0  0  0  0  0  0  0  0  0  0
    3.1894   -2.1747    0.0000 H   0  0  0  0  0  0  0  0  0  0  0  0
    4.2675   -4.0419    0.0000 H   0  0  0  0  0  0  0  0  0  0  0  0
    5.0646   -4.0419    0.0000 H   0  0  0  0  0  0  0  0  0  0  0  0
    5.0646   -1.0920    0.0000 H   0  0  0  0  0  0  0  0  0  0  0  0
    4.2675   -1.0920    0.0000 H   0  0  0  0  0  0  0  0  0  0  0  0
    5.7441   -3.6496    0.0000 H   0  0  0  0  0  0  0  0  0  0  0  0
    6.1426   -2.9593    0.0000 H   0  0  0  0  0  0  0  0  0  0  0  0
    4.9951   -0.3770    0.0000 H   0  0  0  0  0  0  0  0  0  0  0  0
    4.0555    1.5407    0.0000 H   0  0  0  0  0  0  0  0  0  0  0  0
    4.4540    0.8504    0.0000 H   0  0  0  0  0  0  0  0  0  0  0  0
    6.3981    2.0530    0.0000 H   0  0  0  0  0  0  0  0  0  0  0  0
    7.8010    1.2430    0.0000 H   0  0  0  0  0  0  0  0  0  0  0  0
    2.9132    1.7784    0.0000 H   0  0  0  0  0  0  0  0  0  0  0  0
    2.9132    5.0876    0.0000 H   0  0  0  0  0  0  0  0  0  0  0  0
    6.0690    4.2430    0.0000 H   0  0  0  0  0  0  0  0  0  0  0  0
    1.4643    2.6001    0.0000 H   0  0  0  0  0  0  0  0  0  0  0  0
    1.4643    4.2659    0.0000 H   0  0  0  0  0  0  0  0  0  0  0  0
  1 21  1  0  0  0  0
  2 12  2  0  0  0  0
  3 17  2  0  0  0  0
  4 29  2  0  0  0  0
  5 12  1  0  0  0  0
  5 13  1  0  0  0  0
  5 14  1  0  0  0  0
  6 15  1  0  0  0  0
  6 16  1  0  0  0  0
  6 17  1  0  0  0  0
  7  8  1  0  0  0  0
  7 25  2  0  0  0  0
  8 29  1  0  0  0  0
  8 53  1  0  0  0  0
  9 10  1  0  0  0  0
  9 11  1  0  0  0  0
  9 12  1  0  0  0  0
  9 33  1  0  0  0  0
 10 11  1  0  0  0  0
 10 34  1  0  0  0  0
 10 35  1  0  0  0  0
 11 36  1  0  0  0  0
 11 37  1  0  0  0  0
 13 15  1  0  0  0  0
 13 38  1  0  0  0  0
 13 39  1  0  0  0  0
 14 16  1  0  0  0  0
 14 40  1  0  0  0  0
 14 41  1  0  0  0  0
 15 42  1  0  0  0  0
 15 43  1  0  0  0  0
 16 44  1  0  0  0  0
 16 45  1  0  0  0  0
 17 18  1  0  0  0  0
 18 19  1  0  0  0  0
 18 21  2  0  0  0  0
 19 20  2  0  0  0  0
 19 46  1  0  0  0  0
 20 22  1  0  0  0  0
 20 23  1  0  0  0  0
 21 24  1  0  0  0  0
 22 25  1  0  0  0  0
 22 47  1  0  0  0  0
 22 48  1  0  0  0  0
 23 24  2  0  0  0  0
 23 49  1  0  0  0  0
 24 50  1  0  0  0  0
 25 26  1  0  0  0  0
 26 27  1  0  0  0  0
 26 28  2  0  0  0  0
 27 29  1  0  0  0  0
 27 30  2  0  0  0  0
 28 31  1  0  0  0  0
 28 51  1  0  0  0  0
 30 32  1  0  0  0  0
 30 52  1  0  0  0  0
 31 32  2  0  0  0  0
 31 54  1  0  0  0  0
 32 55  1  0  0  0  0
M  END
> <PUBCHEM_COMPOUND_CID>
23725625

> <PUBCHEM_COMPOUND_CANONICALIZED>
1

> <PUBCHEM_CACTVS_COMPLEXITY>
790

> <PUBCHEM_CACTVS_HBOND_ACCEPTOR>
5

> <PUBCHEM_CACTVS_HBOND_DONOR>
1

> <PUBCHEM_CACTVS_ROTATABLE_BOND>
4

> <PUBCHEM_CACTVS_SUBSKEYS>
AAADceB7sQAAAAAAAAAAAAAAGAAAAAAAAAA8YIEAAAAAAACBQAAAHwAYAAAADQjBmAwwAINiAACoAyFyEACSAAAkAAAaiAE4BNgIYLKAlRGUIQhgjgCIiYcYiMCOgAACAAAQAAAAAAQAACAAAAAAAAAAAA==

> <PUBCHEM_IUPAC_OPENEYE_NAME>
4-[[3-[4-(cyclopropanecarbonyl)piperazine-1-carbonyl]-4-fluoro-phenyl]methyl]-2H-phthalazin-1-one

> <PUBCHEM_IUPAC_CAS_NAME>
4-[[3-[[4-[cyclopropyl(oxo)methyl]-1-piperazinyl]-oxomethyl]-4-fluorophenyl]methyl]-2H-phthalazin-1-one

> <PUBCHEM_IUPAC_NAME_MARKUP>
4-[[3-[4-(cyclopropanecarbonyl)piperazine-1-carbonyl]-4-fluorophenyl]methyl]-2<I>H</I>-phthalazin-1-one

> <PUBCHEM_IUPAC_NAME>
4-[[3-[4-(cyclopropanecarbonyl)piperazine-1-carbonyl]-4-fluorophenyl]methyl]-2H-phthalazin-1-one

> <PUBCHEM_IUPAC_SYSTEMATIC_NAME>
4-[[3-(4-cyclopropylcarbonylpiperazin-1-yl)carbonyl-4-fluoranyl-phenyl]methyl]-2H-phthalazin-1-one

> <PUBCHEM_IUPAC_TRADITIONAL_NAME>
4-[3-[4-(cyclopropanecarbonyl)piperazine-1-carbonyl]-4-fluoro-benzyl]-2H-phthalazin-1-one

> <PUBCHEM_IUPAC_INCHI>
InChI=1S/C24H23FN4O3/c25-20-8-5-15(14-21-17-3-1-2-4-18(17)22(30)27-26-21)13-19(20)24(32)29-11-9-28(10-12-29)23(31)16-6-7-16/h1-5,8,13,16H,6-7,9-12,14H2,(H,27,30)

> <PUBCHEM_IUPAC_INCHIKEY>
FDLYAMZZIXQODN-UHFFFAOYSA-N

> <PUBCHEM_XLOGP3_AA>
1.9

> <PUBCHEM_EXACT_MASS>
434.175419

> <PUBCHEM_MOLECULAR_FORMULA>
C24H23FN4O3

> <PUBCHEM_MOLECULAR_WEIGHT>
434.5

> <PUBCHEM_OPENEYE_CAN_SMILES>
C1CC1C(=O)N2CCN(CC2)C(=O)C3=C(C=CC(=C3)CC4=NNC(=O)C5=CC=CC=C54)F

> <PUBCHEM_OPENEYE_ISO_SMILES>
C1CC1C(=O)N2CCN(CC2)C(=O)C3=C(C=CC(=C3)CC4=NNC(=O)C5=CC=CC=C54)F

> <PUBCHEM_CACTVS_TPSA>
82.1

> <PUBCHEM_MONOISOTOPIC_WEIGHT>
434.175419

> <PUBCHEM_TOTAL_CHARGE>
0

> <PUBCHEM_HEAVY_ATOM_COUNT>
32

> <PUBCHEM_ATOM_DEF_STEREO_COUNT>
0

> <PUBCHEM_ATOM_UDEF_STEREO_COUNT>
0

> <PUBCHEM_BOND_DEF_STEREO_COUNT>
0

> <PUBCHEM_BOND_UDEF_STEREO_COUNT>
0

> <PUBCHEM_ISOTOPIC_ATOM_COUNT>
0

> <PUBCHEM_COMPONENT_COUNT>
1

> <PUBCHEM_CACTVS_TAUTO_COUNT>
-1

> <PUBCHEM_COORDINATE_TYPE>
1
5
255

> <PUBCHEM_BONDANNOTATIONS>
18  19  8
18  21  8
19  20  8
20  23  8
21  24  8
23  24  8
25  26  8
26  27  8
26  28  8
27  29  8
27  30  8
28  31  8
30  32  8
31  32  8
7  25  8
7  8  8
8  29  8

$$$$
10384072
  -OEChem-02182015172D

 37 41  0     0  0  0  0  0  0999 V2000
    6.7479    2.5619    0.0000 Cl  0  0  0  0  0  0  0  0  0  0  0  0
    2.8930   -1.1934    0.0000 O   0  0  0  0  0  0  0  0  0  0  0  0
    2.8930    2.3172    0.0000 O   0  0  0  0  0  0  0  0  0  0  0  0
    4.4288   -3.9947    0.0000 O   0  0  0  0  0  0  0  0  0  0  0  0
    6.6189   -0.6052    0.0000 N   0  0  0  0  0  0  0  0  0  0  0  0
    2.6200    0.5619    0.0000 N   0  0  0  0  0  0  0  0  0  0  0  0
    5.0158   -0.4381    0.0000 C   0  0  0  0  0  0  0  0  0  0  0  0
    4.1498    0.0619    0.0000 C   0  0  0  0  0  0  0  0  0  0  0  0
    5.8819    0.0619    0.0000 C   0  0  0  0  0  0  0  0  0  0  0  0
    5.2251   -1.4099    0.0000 C   0  0  0  0  0  0  0  0  0  0  0  0
    4.1498    1.0619    0.0000 C   0  0  0  0  0  0  0  0  0  0  0  0
    5.0158    1.5619    0.0000 C   0  0  0  0  0  0  0  0  0  0  0  0
    6.2138   -1.5130    0.0000 C   0  0  0  0  0  0  0  0  0  0  0  0
    5.8819    1.0619    0.0000 C   0  0  0  0  0  0  0  0  0  0  0  0
    3.2036   -0.2428    0.0000 C   0  0  0  0  0  0  0  0  0  0  0  0
    3.2036    1.3666    0.0000 C   0  0  0  0  0  0  0  0  0  0  0  0
    5.0158    2.5619    0.0000 C   0  0  0  0  0  0  0  0  0  0  0  0
    4.6043   -2.2387    0.0000 C   0  0  0  0  0  0  0  0  0  0  0  0
    6.6503   -2.4519    0.0000 C   0  0  0  0  0  0  0  0  0  0  0  0
    5.0190   -3.1875    0.0000 C   0  0  0  0  0  0  0  0  0  0  0  0
    6.0489   -3.2948    0.0000 C   0  0  0  0  0  0  0  0  0  0  0  0
    5.8819    3.0619    0.0000 C   0  0  0  0  0  0  0  0  0  0  0  0
    4.1498    3.0619    0.0000 C   0  0  0  0  0  0  0  0  0  0  0  0
    5.8819    4.0619    0.0000 C   0  0  0  0  0  0  0  0  0  0  0  0
    4.1498    4.0619    0.0000 C   0  0  0  0  0  0  0  0  0  0  0  0
    5.0158    4.5619    0.0000 C   0  0  0  0  0  0  0  0  0  0  0  0
    6.4188    1.3719    0.0000 H   0  0  0  0  0  0  0  0  0  0  0  0
    7.2256   -0.4773    0.0000 H   0  0  0  0  0  0  0  0  0  0  0  0
    3.9884   -2.1673    0.0000 H   0  0  0  0  0  0  0  0  0  0  0  0
    2.0000    0.5619    0.0000 H   0  0  0  0  0  0  0  0  0  0  0  0
    7.2676   -2.5091    0.0000 H   0  0  0  0  0  0  0  0  0  0  0  0
    6.3037   -3.8600    0.0000 H   0  0  0  0  0  0  0  0  0  0  0  0
    3.6129    2.7519    0.0000 H   0  0  0  0  0  0  0  0  0  0  0  0
    6.4188    4.3719    0.0000 H   0  0  0  0  0  0  0  0  0  0  0  0
    3.6129    4.3719    0.0000 H   0  0  0  0  0  0  0  0  0  0  0  0
    5.0158    5.1819    0.0000 H   0  0  0  0  0  0  0  0  0  0  0  0
    4.6793   -4.5619    0.0000 H   0  0  0  0  0  0  0  0  0  0  0  0
  1 22  1  0  0  0  0
  2 15  2  0  0  0  0
  3 16  2  0  0  0  0
  4 20  1  0  0  0  0
  4 37  1  0  0  0  0
  5  9  1  0  0  0  0
  5 13  1  0  0  0  0
  5 28  1  0  0  0  0
  6 15  1  0  0  0  0
  6 16  1  0  0  0  0
  6 30  1  0  0  0  0
  7  8  1  0  0  0  0
  7  9  2  0  0  0  0
  7 10  1  0  0  0  0
  8 11  2  0  0  0  0
  8 15  1  0  0  0  0
  9 14  1  0  0  0  0
 10 13  2  0  0  0  0
 10 18  1  0  0  0  0
 11 12  1  0  0  0  0
 11 16  1  0  0  0  0
 12 14  2  0  0  0  0
 12 17  1  0  0  0  0
 13 19  1  0  0  0  0
 14 27  1  0  0  0  0
 17 22  1  0  0  0  0
 17 23  2  0  0  0  0
 18 20  2  0  0  0  0
 18 29  1  0  0  0  0
 19 21  2  0  0  0  0
 19 31  1  0  0  0  0
 20 21  1  0  0  0  0
 21 32  1  0  0  0  0
 22 24  2  0  0  0  0
 23 25  1  0  0  0  0
 23 33  1  0  0  0  0
 24 26  1  0  0  0  0
 24 34  1  0  0  0  0
 25 26  2  0  0  0  0
 25 35  1  0  0  0  0
 26 36  1  0  0  0  0
M  END
> <PUBCHEM_COMPOUND_CID>
10384072

> <PUBCHEM_COMPOUND_CANONICALIZED>
1

> <PUBCHEM_CACTVS_COMPLEXITY>
614

> <PUBCHEM_CACTVS_HBOND_ACCEPTOR>
3

> <PUBCHEM_CACTVS_HBOND_DONOR>
3

> <PUBCHEM_CACTVS_ROTATABLE_BOND>
1

> <PUBCHEM_CACTVS_SUBSKEYS>
AAADccB7MAAEAAAAAAAAAAAAAAAAAWLAAAAwYMAAAAAAAFgB/AAAHgIQCAAADA6BniAwxvLJkgCoAyVyVACCgCAlJyAImSE2btgIJvLDl5OEcQhk1DHI2Qe92fOeyEADQAATAACQgAaAACYAAAAAAAAAAA==

> <PUBCHEM_IUPAC_OPENEYE_NAME>
4-(2-chlorophenyl)-9-hydroxy-6H-pyrrolo[3,4-c]carbazole-1,3-dione

> <PUBCHEM_IUPAC_CAS_NAME>
4-(2-chlorophenyl)-9-hydroxy-6H-pyrrolo[3,4-c]carbazole-1,3-dione

> <PUBCHEM_IUPAC_NAME_MARKUP>
4-(2-chlorophenyl)-9-hydroxy-6<I>H</I>-pyrrolo[3,4-c]carbazole-1,3-dione

> <PUBCHEM_IUPAC_NAME>
4-(2-chlorophenyl)-9-hydroxy-6H-pyrrolo[3,4-c]carbazole-1,3-dione

> <PUBCHEM_IUPAC_SYSTEMATIC_NAME>
4-(2-chlorophenyl)-9-oxidanyl-6H-pyrrolo[3,4-c]carbazole-1,3-dione

> <PUBCHEM_IUPAC_TRADITIONAL_NAME>
4-(2-chlorophenyl)-9-hydroxy-6H-pyrrolo[3,4-c]carbazole-1,3-quinone

> <PUBCHEM_IUPAC_INCHI>
InChI=1S/C20H11ClN2O3/c21-13-4-2-1-3-10(13)11-8-15-16(18-17(11)19(25)23-20(18)26)12-7-9(24)5-6-14(12)22-15/h1-8,22,24H,(H,23,25,26)

> <PUBCHEM_IUPAC_INCHIKEY>
DPEXRCOBPACFOO-UHFFFAOYSA-N

> <PUBCHEM_XLOGP3_AA>
4.1

> <PUBCHEM_EXACT_MASS>
362.04582

> <PUBCHEM_MOLECULAR_FORMULA>
C20H11ClN2O3

> <PUBCHEM_MOLECULAR_WEIGHT>
362.8

> <PUBCHEM_OPENEYE_CAN_SMILES>
C1=CC=C(C(=C1)C2=CC3=C(C4=C(N3)C=CC(=C4)O)C5=C2C(=O)NC5=O)Cl

> <PUBCHEM_OPENEYE_ISO_SMILES>
C1=CC=C(C(=C1)C2=CC3=C(C4=C(N3)C=CC(=C4)O)C5=C2C(=O)NC5=O)Cl

> <PUBCHEM_CACTVS_TPSA>
82.2

> <PUBCHEM_MONOISOTOPIC_WEIGHT>
362.04582

> <PUBCHEM_TOTAL_CHARGE>
0

> <PUBCHEM_HEAVY_ATOM_COUNT>
26

> <PUBCHEM_ATOM_DEF_STEREO_COUNT>
0

> <PUBCHEM_ATOM_UDEF_STEREO_COUNT>
0

> <PUBCHEM_BOND_DEF_STEREO_COUNT>
0

> <PUBCHEM_BOND_UDEF_STEREO_COUNT>
0

> <PUBCHEM_ISOTOPIC_ATOM_COUNT>
0

> <PUBCHEM_COMPONENT_COUNT>
1

> <PUBCHEM_CACTVS_TAUTO_COUNT>
-1

> <PUBCHEM_COORDINATE_TYPE>
1
5
255

> <PUBCHEM_BONDANNOTATIONS>
10  13  8
10  18  8
11  12  8
12  14  8
13  19  8
17  22  8
17  23  8
18  20  8
19  21  8
20  21  8
22  24  8
23  25  8
24  26  8
25  26  8
5  13  8
5  9  8
7  10  8
7  8  8
7  9  8
8  11  8
9  14  8

$$$$
46930998
  -OEChem-02182015172D

 56 59  0     0  0  0  0  0  0999 V2000
    7.3491    0.0000    0.0000 Cl  0  0  0  0  0  0  0  0  0  0  0  0
    0.0000    4.9774    0.0000 Cl  0  0  0  0  0  0  0  0  0  0  0  0
    3.9032    2.5128    0.0000 O   0  0  0  0  0  0  0  0  0  0  0  0
   11.7786    7.4352    0.0000 N   0  0  0  0  0  0  0  0  0  0  0  0
    7.8021    5.2749    0.0000 N   0  0  0  0  0  0  0  0  0  0  0  0
    5.1601    3.7681    0.0000 N   0  0  0  0  0  0  0  0  0  0  0  0
    4.2139    5.0728    0.0000 N   0  0  0  0  0  0  0  0  0  0  0  0
    3.6302    4.2681    0.0000 N   0  0  0  0  0  0  0  0  0  0  0  0
   11.2819    8.3031    0.0000 C   0  0  0  0  0  0  0  0  0  0  0  0
   12.1499    8.7998    0.0000 C   0  0  0  0  0  0  0  0  0  0  0  0
   10.7853    9.1711    0.0000 C   0  0  0  0  0  0  0  0  0  0  0  0
   11.6532    9.6678    0.0000 C   0  0  0  0  0  0  0  0  0  0  0  0
   10.4140    7.8065    0.0000 C   0  0  0  0  0  0  0  0  0  0  0  0
    9.5499    8.3098    0.0000 C   0  0  0  0  0  0  0  0  0  0  0  0
   10.4101    6.8065    0.0000 C   0  0  0  0  0  0  0  0  0  0  0  0
    8.6820    7.8132    0.0000 C   0  0  0  0  0  0  0  0  0  0  0  0
    9.5422    6.3098    0.0000 C   0  0  0  0  0  0  0  0  0  0  0  0
    8.6781    6.8132    0.0000 C   0  0  0  0  0  0  0  0  0  0  0  0
    7.8102    6.3165    0.0000 C   0  0  0  0  0  0  0  0  0  0  0  0
    6.9081    6.8373    0.0000 C   0  0  0  0  0  0  0  0  0  0  0  0
    6.0261    5.2681    0.0000 C   0  0  0  0  0  0  0  0  0  0  0  0
    6.8921    4.7681    0.0000 C   0  0  0  0  0  0  0  0  0  0  0  0
    6.0100    6.3096    0.0000 C   0  0  0  0  0  0  0  0  0  0  0  0
    6.9042    7.8373    0.0000 C   0  0  0  0  0  0  0  0  0  0  0  0
    5.1601    4.7681    0.0000 C   0  0  0  0  0  0  0  0  0  0  0  0
    6.8921    3.7681    0.0000 C   0  0  0  0  0  0  0  0  0  0  0  0
    6.0261    3.2681    0.0000 C   0  0  0  0  0  0  0  0  0  0  0  0
    7.7683    8.3406    0.0000 C   0  0  0  0  0  0  0  0  0  0  0  0
    6.0363    8.3340    0.0000 C   0  0  0  0  0  0  0  0  0  0  0  0
    4.2139    3.4633    0.0000 C   0  0  0  0  0  0  0  0  0  0  0  0
    7.7645    9.3406    0.0000 C   0  0  0  0  0  0  0  0  0  0  0  0
    6.0324    9.3340    0.0000 C   0  0  0  0  0  0  0  0  0  0  0  0
    6.8965    9.8373    0.0000 C   0  0  0  0  0  0  0  0  0  0  0  0
   12.4578    8.2617    0.0000 H   0  0  0  0  0  0  0  0  0  0  0  0
   12.6880    9.1077    0.0000 H   0  0  0  0  0  0  0  0  0  0  0  0
   10.4774    9.7092    0.0000 H   0  0  0  0  0  0  0  0  0  0  0  0
   10.2472    8.8632    0.0000 H   0  0  0  0  0  0  0  0  0  0  0  0
   12.1914    9.9757    0.0000 H   0  0  0  0  0  0  0  0  0  0  0  0
   11.3453   10.2059    0.0000 H   0  0  0  0  0  0  0  0  0  0  0  0
   12.3986    7.4328    0.0000 H   0  0  0  0  0  0  0  0  0  0  0  0
   11.4665    6.8995    0.0000 H   0  0  0  0  0  0  0  0  0  0  0  0
    9.5523    8.9298    0.0000 H   0  0  0  0  0  0  0  0  0  0  0  0
   10.9459    6.4944    0.0000 H   0  0  0  0  0  0  0  0  0  0  0  0
    8.1462    8.1252    0.0000 H   0  0  0  0  0  0  0  0  0  0  0  0
    9.5398    5.6898    0.0000 H   0  0  0  0  0  0  0  0  0  0  0  0
    5.4696    6.6133    0.0000 H   0  0  0  0  0  0  0  0  0  0  0  0
    7.4291    3.4581    0.0000 H   0  0  0  0  0  0  0  0  0  0  0  0
    6.0261    2.6481    0.0000 H   0  0  0  0  0  0  0  0  0  0  0  0
    8.3064    8.0327    0.0000 H   0  0  0  0  0  0  0  0  0  0  0  0
    5.5005    8.0219    0.0000 H   0  0  0  0  0  0  0  0  0  0  0  0
    3.0102    4.2681    0.0000 H   0  0  0  0  0  0  0  0  0  0  0  0
    8.3002    9.6527    0.0000 H   0  0  0  0  0  0  0  0  0  0  0  0
    5.4943    9.6419    0.0000 H   0  0  0  0  0  0  0  0  0  0  0  0
    6.8941   10.4573    0.0000 H   0  0  0  0  0  0  0  0  0  0  0  0
    8.3491    0.0000    0.0000 H   0  0  0  0  0  0  0  0  0  0  0  0
    1.0000    4.9774    0.0000 H   0  0  0  0  0  0  0  0  0  0  0  0
  1 55  1  0  0  0  0
  2 56  1  0  0  0  0
  3 30  2  0  0  0  0
  4  9  1  0  0  0  0
  4 40  1  0  0  0  0
  4 41  1  0  0  0  0
  5 19  1  0  0  0  0
  5 22  2  0  0  0  0
  6 25  1  0  0  0  0
  6 27  1  0  0  0  0
  6 30  1  0  0  0  0
  7  8  1  0  0  0  0
  7 25  2  0  0  0  0
  8 30  1  0  0  0  0
  8 51  1  0  0  0  0
  9 10  1  0  0  0  0
  9 11  1  0  0  0  0
  9 13  1  0  0  0  0
 10 12  1  0  0  0  0
 10 34  1  0  0  0  0
 10 35  1  0  0  0  0
 11 12  1  0  0  0  0
 11 36  1  0  0  0  0
 11 37  1  0  0  0  0
 12 38  1  0  0  0  0
 12 39  1  0  0  0  0
 13 14  2  0  0  0  0
 13 15  1  0  0  0  0
 14 16  1  0  0  0  0
 14 42  1  0  0  0  0
 15 17  2  0  0  0  0
 15 43  1  0  0  0  0
 16 18  2  0  0  0  0
 16 44  1  0  0  0  0
 17 18  1  0  0  0  0
 17 45  1  0  0  0  0
 18 19  1  0  0  0  0
 19 20  2  0  0  0  0
 20 23  1  0  0  0  0
 20 24  1  0  0  0  0
 21 22  1  0  0  0  0
 21 23  2  0  0  0  0
 21 25  1  0  0  0  0
 22 26  1  0  0  0  0
 23 46  1  0  0  0  0
 24 28  2  0  0  0  0
 24 29  1  0  0  0  0
 26 27  2  0  0  0  0
 26 47  1  0  0  0  0
 27 48  1  0  0  0  0
 28 31  1  0  0  0  0
 28 49  1  0  0  0  0
 29 32  2  0  0  0  0
 29 50  1  0  0  0  0
 31 33  2  0  0  0  0
 31 52  1  0  0  0  0
 32 33  1  0  0  0  0
 32 53  1  0  0  0  0
 33 54  1  0  0  0  0
M  END
> <PUBCHEM_COMPOUND_CID>
46930998

> <PUBCHEM_COMPOUND_CANONICALIZED>
1

> <PUBCHEM_CACTVS_COMPLEXITY>
760

> <PUBCHEM_CACTVS_HBOND_ACCEPTOR>
4

> <PUBCHEM_CACTVS_HBOND_DONOR>
4

> <PUBCHEM_CACTVS_ROTATABLE_BOND>
3

> <PUBCHEM_CACTVS_SUBSKEYS>
AAADceB7oAAGAAAAAAAAAAAAAABgAQAAAAA8YIEAAAAAAECB0AAAHgAYAAAADIjBHgQxgJNqEACoAyZmdACSgCAhAiAPmCA4RJiIIOLA0ZGEIAhgngLIyAcQgMAOwAAAAAAAAACAAAAAAAAAAAAAAAAAAA==

> <PUBCHEM_IUPAC_OPENEYE_NAME>
8-[4-(1-aminocyclobutyl)phenyl]-9-phenyl-2H-[1,2,4]triazolo[3,4-f][1,6]naphthyridin-3-one;dihydrochloride

> <PUBCHEM_IUPAC_CAS_NAME>
8-[4-(1-aminocyclobutyl)phenyl]-9-phenyl-2H-[1,2,4]triazolo[3,4-f][1,6]naphthyridin-3-one;dihydrochloride

> <PUBCHEM_IUPAC_NAME_MARKUP>
8-[4-(1-aminocyclobutyl)phenyl]-9-phenyl-2<I>H</I>-[1,2,4]triazolo[3,4-f][1,6]naphthyridin-3-one;dihydrochloride

> <PUBCHEM_IUPAC_NAME>
8-[4-(1-aminocyclobutyl)phenyl]-9-phenyl-2H-[1,2,4]triazolo[3,4-f][1,6]naphthyridin-3-one;dihydrochloride

> <PUBCHEM_IUPAC_SYSTEMATIC_NAME>
8-[4-(1-azanylcyclobutyl)phenyl]-9-phenyl-2H-[1,2,4]triazolo[3,4-f][1,6]naphthyridin-3-one;dihydrochloride

> <PUBCHEM_IUPAC_TRADITIONAL_NAME>
8-[4-(1-aminocyclobutyl)phenyl]-9-phenyl-2H-[1,2,4]triazolo[3,4-f][1,6]naphthyridin-3-one;dihydrochloride

> <PUBCHEM_IUPAC_INCHI>
InChI=1S/C25H21N5O.2ClH/c26-25(12-4-13-25)18-9-7-17(8-10-18)22-19(16-5-2-1-3-6-16)15-20-21(27-22)11-14-30-23(20)28-29-24(30)31;;/h1-3,5-11,14-15H,4,12-13,26H2,(H,29,31);2*1H

> <PUBCHEM_IUPAC_INCHIKEY>
HWUHTJIKQZZBRA-UHFFFAOYSA-N

> <PUBCHEM_EXACT_MASS>
479.127966

> <PUBCHEM_MOLECULAR_FORMULA>
C25H23Cl2N5O

> <PUBCHEM_MOLECULAR_WEIGHT>
480.4

> <PUBCHEM_OPENEYE_CAN_SMILES>
C1CC(C1)(C2=CC=C(C=C2)C3=C(C=C4C(=N3)C=CN5C4=NNC5=O)C6=CC=CC=C6)N.Cl.Cl

> <PUBCHEM_OPENEYE_ISO_SMILES>
C1CC(C1)(C2=CC=C(C=C2)C3=C(C=C4C(=N3)C=CN5C4=NNC5=O)C6=CC=CC=C6)N.Cl.Cl

> <PUBCHEM_CACTVS_TPSA>
83.6

> <PUBCHEM_MONOISOTOPIC_WEIGHT>
479.127966

> <PUBCHEM_TOTAL_CHARGE>
0

> <PUBCHEM_HEAVY_ATOM_COUNT>
33

> <PUBCHEM_ATOM_DEF_STEREO_COUNT>
0

> <PUBCHEM_ATOM_UDEF_STEREO_COUNT>
0

> <PUBCHEM_BOND_DEF_STEREO_COUNT>
0

> <PUBCHEM_BOND_UDEF_STEREO_COUNT>
0

> <PUBCHEM_ISOTOPIC_ATOM_COUNT>
0

> <PUBCHEM_COMPONENT_COUNT>
3

> <PUBCHEM_CACTVS_TAUTO_COUNT>
-1

> <PUBCHEM_COORDINATE_TYPE>
1
5
255

> <PUBCHEM_BONDANNOTATIONS>
13  14  8
13  15  8
14  16  8
15  17  8
16  18  8
17  18  8
19  20  8
20  23  8
21  22  8
21  23  8
21  25  8
22  26  8
24  28  8
24  29  8
26  27  8
28  31  8
29  32  8
31  33  8
32  33  8
5  19  8
5  22  8
6  25  8
6  27  8
6  30  8
7  25  8
7  8  8
8  30  8

$$$$
11719003
  -OEChem-02182015172D

 51 53  0     1  0  0  0  0  0999 V2000
    6.1027   -1.4206    0.0000 Cl  0  0  0  0  0  0  0  0  0  0  0  0
    2.0000    4.0407    0.0000 Cl  0  0  0  0  0  0  0  0  0  0  0  0
    4.9836    4.3543    0.0000 O   0  0  0  0  0  0  0  0  0  0  0  0
    7.1537    2.8408    0.0000 O   0  0  0  0  0  0  0  0  0  0  0  0
    5.7524    1.8227    0.0000 N   0  0  0  0  0  0  0  0  0  0  0  0
    8.3347    1.1182    0.0000 N   0  0  0  0  0  0  0  0  0  0  0  0
    9.5668   -3.4206    0.0000 N   0  0  0  0  0  0  0  0  0  0  0  0
    7.8347   -3.4206    0.0000 N   0  0  0  0  0  0  0  0  0  0  0  0
    5.1646    2.6317    0.0000 C   0  0  1  0  0  0  0  0  0  0  0  0
    4.1701    2.5272    0.0000 C   0  0  0  0  0  0  0  0  0  0  0  0
    7.8347   -0.4207    0.0000 C   0  0  0  0  0  0  0  0  0  0  0  0
    7.3347    1.1182    0.0000 C   0  0  0  0  0  0  0  0  0  0  0  0
    5.5714    3.5452    0.0000 C   0  0  0  0  0  0  0  0  0  0  0  0
    7.8347   -1.4206    0.0000 C   0  0  0  0  0  0  0  0  0  0  0  0
    6.7469    1.9272    0.0000 C   0  0  0  0  0  0  0  0  0  0  0  0
    7.0257    0.1671    0.0000 C   0  0  0  0  0  0  0  0  0  0  0  0
    9.5668   -4.4206    0.0000 C   0  0  0  0  0  0  0  0  0  0  0  0
    8.6437    0.1671    0.0000 C   0  0  0  0  0  0  0  0  0  0  0  0
    8.7007   -2.9207    0.0000 C   0  0  0  0  0  0  0  0  0  0  0  0
    8.7007   -1.9206    0.0000 C   0  0  0  0  0  0  0  0  0  0  0  0
    3.5823    3.3362    0.0000 C   0  0  0  0  0  0  0  0  0  0  0  0
    3.7634    1.6136    0.0000 C   0  0  0  0  0  0  0  0  0  0  0  0
    6.9687   -1.9206    0.0000 C   0  0  0  0  0  0  0  0  0  0  0  0
   10.4328   -4.9206    0.0000 C   0  0  0  0  0  0  0  0  0  0  0  0
    8.7007   -4.9206    0.0000 C   0  0  0  0  0  0  0  0  0  0  0  0
    2.5878    3.2316    0.0000 C   0  0  0  0  0  0  0  0  0  0  0  0
    2.7688    1.5091    0.0000 C   0  0  0  0  0  0  0  0  0  0  0  0
    6.9687   -2.9207    0.0000 C   0  0  0  0  0  0  0  0  0  0  0  0
    2.1810    2.3181    0.0000 C   0  0  0  0  0  0  0  0  0  0  0  0
    4.9124    2.0653    0.0000 H   0  0  0  0  0  0  0  0  0  0  0  0
    5.5002    1.2563    0.0000 H   0  0  0  0  0  0  0  0  0  0  0  0
    6.0854    3.1985    0.0000 H   0  0  0  0  0  0  0  0  0  0  0  0
    6.0020    3.9912    0.0000 H   0  0  0  0  0  0  0  0  0  0  0  0
    9.0298   -4.1106    0.0000 H   0  0  0  0  0  0  0  0  0  0  0  0
    6.4360   -0.0245    0.0000 H   0  0  0  0  0  0  0  0  0  0  0  0
    9.2334   -0.0245    0.0000 H   0  0  0  0  0  0  0  0  0  0  0  0
    8.6991    1.6198    0.0000 H   0  0  0  0  0  0  0  0  0  0  0  0
    9.2377   -1.6106    0.0000 H   0  0  0  0  0  0  0  0  0  0  0  0
   10.1037   -3.1106    0.0000 H   0  0  0  0  0  0  0  0  0  0  0  0
    3.8345    3.9026    0.0000 H   0  0  0  0  0  0  0  0  0  0  0  0
    4.1278    1.1120    0.0000 H   0  0  0  0  0  0  0  0  0  0  0  0
   10.1228   -5.4576    0.0000 H   0  0  0  0  0  0  0  0  0  0  0  0
   10.9697   -5.2306    0.0000 H   0  0  0  0  0  0  0  0  0  0  0  0
   10.7428   -4.3837    0.0000 H   0  0  0  0  0  0  0  0  0  0  0  0
    8.3907   -4.3837    0.0000 H   0  0  0  0  0  0  0  0  0  0  0  0
    8.1638   -5.2306    0.0000 H   0  0  0  0  0  0  0  0  0  0  0  0
    9.0107   -5.4576    0.0000 H   0  0  0  0  0  0  0  0  0  0  0  0
    2.5167    0.9427    0.0000 H   0  0  0  0  0  0  0  0  0  0  0  0
    6.4318   -3.2306    0.0000 H   0  0  0  0  0  0  0  0  0  0  0  0
    1.5644    2.2533    0.0000 H   0  0  0  0  0  0  0  0  0  0  0  0
    5.2357    4.9206    0.0000 H   0  0  0  0  0  0  0  0  0  0  0  0
  1 23  1  0  0  0  0
  2 26  1  0  0  0  0
  3 13  1  0  0  0  0
  3 51  1  0  0  0  0
  4 15  2  0  0  0  0
  9  5  1  1  0  0  0
  5 15  1  0  0  0  0
  5 31  1  0  0  0  0
  6 12  1  0  0  0  0
  6 18  1  0  0  0  0
  6 37  1  0  0  0  0
  7 17  1  0  0  0  0
  7 19  1  0  0  0  0
  7 39  1  0  0  0  0
  8 19  2  0  0  0  0
  8 28  1  0  0  0  0
  9 10  1  0  0  0  0
  9 13  1  0  0  0  0
  9 30  1  0  0  0  0
 10 21  2  0  0  0  0
 10 22  1  0  0  0  0
 11 14  1  0  0  0  0
 11 16  1  0  0  0  0
 11 18  2  0  0  0  0
 12 15  1  0  0  0  0
 12 16  2  0  0  0  0
 13 32  1  0  0  0  0
 13 33  1  0  0  0  0
 14 20  2  0  0  0  0
 14 23  1  0  0  0  0
 16 35  1  0  0  0  0
 17 24  1  0  0  0  0
 17 25  1  0  0  0  0
 17 34  1  0  0  0  0
 18 36  1  0  0  0  0
 19 20  1  0  0  0  0
 20 38  1  0  0  0  0
 21 26  1  0  0  0  0
 21 40  1  0  0  0  0
 22 27  2  0  0  0  0
 22 41  1  0  0  0  0
 23 28  2  0  0  0  0
 24 42  1  0  0  0  0
 24 43  1  0  0  0  0
 24 44  1  0  0  0  0
 25 45  1  0  0  0  0
 25 46  1  0  0  0  0
 25 47  1  0  0  0  0
 26 29  2  0  0  0  0
 27 29  1  0  0  0  0
 27 48  1  0  0  0  0
 28 49  1  0  0  0  0
 29 50  1  0  0  0  0
M  END
> <PUBCHEM_COMPOUND_CID>
11719003

> <PUBCHEM_COMPOUND_CANONICALIZED>
1

> <PUBCHEM_CACTVS_COMPLEXITY>
539

> <PUBCHEM_CACTVS_HBOND_ACCEPTOR>
4

> <PUBCHEM_CACTVS_HBOND_DONOR>
4

> <PUBCHEM_CACTVS_ROTATABLE_BOND>
7

> <PUBCHEM_CACTVS_SUBSKEYS>
AAADceB7sAAGAAAAAAAAAAAAAAAAAWAAAAA8QAAAAAAAAAAB8AAAHgIQCAAADCrhniY/sJLJkgCoAzd3dACCgCk3ByAJ2aG4ZtiKcPLBn7HUYQhs1gPYyaeYyaCOgAAAIAAAAAAAAABAAAAAAAAAAAAAAA==

> <PUBCHEM_IUPAC_OPENEYE_NAME>
4-[5-chloro-2-(isopropylamino)-4-pyridyl]-N-[(1S)-1-(3-chlorophenyl)-2-hydroxy-ethyl]-1H-pyrrole-2-carboxamide

> <PUBCHEM_IUPAC_CAS_NAME>
N-[(1S)-1-(3-chlorophenyl)-2-hydroxyethyl]-4-[5-chloro-2-(propan-2-ylamino)-4-pyridinyl]-1H-pyrrole-2-carboxamide

> <PUBCHEM_IUPAC_NAME_MARKUP>
<I>N</I>-[(1<I>S</I>)-1-(3-chlorophenyl)-2-hydroxyethyl]-4-[5-chloro-2-(propan-2-ylamino)pyridin-4-yl]-1<I>H</I>-pyrrole-2-carboxamide

> <PUBCHEM_IUPAC_NAME>
N-[(1S)-1-(3-chlorophenyl)-2-hydroxyethyl]-4-[5-chloro-2-(propan-2-ylamino)pyridin-4-yl]-1H-pyrrole-2-carboxamide

> <PUBCHEM_IUPAC_SYSTEMATIC_NAME>
4-[5-chloranyl-2-(propan-2-ylamino)pyridin-4-yl]-N-[(1S)-1-(3-chlorophenyl)-2-oxidanyl-ethyl]-1H-pyrrole-2-carboxamide

> <PUBCHEM_IUPAC_TRADITIONAL_NAME>
4-[5-chloro-2-(isopropylamino)-4-pyridyl]-N-[(1S)-1-(3-chlorophenyl)-2-hydroxy-ethyl]-1H-pyrrole-2-carboxamide

> <PUBCHEM_IUPAC_INCHI>
InChI=1S/C21H22Cl2N4O2/c1-12(2)26-20-8-16(17(23)10-25-20)14-7-18(24-9-14)21(29)27-19(11-28)13-4-3-5-15(22)6-13/h3-10,12,19,24,28H,11H2,1-2H3,(H,25,26)(H,27,29)/t19-/m1/s1

> <PUBCHEM_IUPAC_INCHIKEY>
KSERXGMCDHOLSS-LJQANCHMSA-N

> <PUBCHEM_XLOGP3_AA>
4.1

> <PUBCHEM_EXACT_MASS>
432.111981

> <PUBCHEM_MOLECULAR_FORMULA>
C21H22Cl2N4O2

> <PUBCHEM_MOLECULAR_WEIGHT>
433.3

> <PUBCHEM_OPENEYE_CAN_SMILES>
CC(C)NC1=NC=C(C(=C1)C2=CNC(=C2)C(=O)NC(CO)C3=CC(=CC=C3)Cl)Cl

> <PUBCHEM_OPENEYE_ISO_SMILES>
CC(C)NC1=NC=C(C(=C1)C2=CNC(=C2)C(=O)N[C@H](CO)C3=CC(=CC=C3)Cl)Cl

> <PUBCHEM_CACTVS_TPSA>
90

> <PUBCHEM_MONOISOTOPIC_WEIGHT>
432.111981

> <PUBCHEM_TOTAL_CHARGE>
0

> <PUBCHEM_HEAVY_ATOM_COUNT>
29

> <PUBCHEM_ATOM_DEF_STEREO_COUNT>
1

> <PUBCHEM_ATOM_UDEF_STEREO_COUNT>
0

> <PUBCHEM_BOND_DEF_STEREO_COUNT>
0

> <PUBCHEM_BOND_UDEF_STEREO_COUNT>
0

> <PUBCHEM_ISOTOPIC_ATOM_COUNT>
0

> <PUBCHEM_COMPONENT_COUNT>
1

> <PUBCHEM_CACTVS_TAUTO_COUNT>
-1

> <PUBCHEM_COORDINATE_TYPE>
1
5
255

> <PUBCHEM_BONDANNOTATIONS>
10  21  8
10  22  8
11  16  8
11  18  8
12  16  8
14  20  8
14  23  8
19  20  8
21  26  8
22  27  8
23  28  8
26  29  8
27  29  8
9  5  5
6  12  8
6  18  8
8  19  8
8  28  8

$$$$
176870
  -OEChem-02182015172D

 52 54  0     0  0  0  0  0  0999 V2000
    5.4641    0.3372    0.0000 O   0  0  0  0  0  0  0  0  0  0  0  0
    5.4641    2.3372    0.0000 O   0  0  0  0  0  0  0  0  0  0  0  0
    2.8660    0.8372    0.0000 O   0  0  0  0  0  0  0  0  0  0  0  0
    4.5981    4.8372    0.0000 O   0  0  0  0  0  0  0  0  0  0  0  0
    8.9446   -0.6974    0.0000 N   0  0  0  0  0  0  0  0  0  0  0  0
    8.9561    2.3718    0.0000 N   0  0  0  0  0  0  0  0  0  0  0  0
    9.8622    0.8163    0.0000 N   0  0  0  0  0  0  0  0  0  0  0  0
    8.0622    0.8372    0.0000 C   0  0  0  0  0  0  0  0  0  0  0  0
    8.0622    1.8372    0.0000 C   0  0  0  0  0  0  0  0  0  0  0  0
    6.3301    0.8372    0.0000 C   0  0  0  0  0  0  0  0  0  0  0  0
    6.3301    1.8372    0.0000 C   0  0  0  0  0  0  0  0  0  0  0  0
    7.1962    0.3372    0.0000 C   0  0  0  0  0  0  0  0  0  0  0  0
    8.9561    0.3025    0.0000 C   0  0  0  0  0  0  0  0  0  0  0  0
    7.1962    2.3372    0.0000 C   0  0  0  0  0  0  0  0  0  0  0  0
    4.5981    0.8372    0.0000 C   0  0  0  0  0  0  0  0  0  0  0  0
    9.8047   -1.2074    0.0000 C   0  0  0  0  0  0  0  0  0  0  0  0
    5.4641    3.3372    0.0000 C   0  0  0  0  0  0  0  0  0  0  0  0
    9.8622    1.8580    0.0000 C   0  0  0  0  0  0  0  0  0  0  0  0
    3.7320    0.3372    0.0000 C   0  0  0  0  0  0  0  0  0  0  0  0
    4.5981    3.8372    0.0000 C   0  0  0  0  0  0  0  0  0  0  0  0
    9.7932   -2.2074    0.0000 C   0  0  0  0  0  0  0  0  0  0  0  0
   10.6765   -0.7175    0.0000 C   0  0  0  0  0  0  0  0  0  0  0  0
   10.6534   -2.7173    0.0000 C   0  0  0  0  0  0  0  0  0  0  0  0
   11.5367   -1.2274    0.0000 C   0  0  0  0  0  0  0  0  0  0  0  0
   11.5251   -2.2274    0.0000 C   0  0  0  0  0  0  0  0  0  0  0  0
    2.0000    0.3372    0.0000 C   0  0  0  0  0  0  0  0  0  0  0  0
    3.7320    5.3372    0.0000 C   0  0  0  0  0  0  0  0  0  0  0  0
   10.6418   -3.7173    0.0000 C   0  0  0  0  0  0  0  0  0  0  0  0
   10.6302   -4.7172    0.0000 C   0  0  0  0  0  0  0  0  0  0  0  0
    7.1962   -0.2828    0.0000 H   0  0  0  0  0  0  0  0  0  0  0  0
    7.1962    2.9572    0.0000 H   0  0  0  0  0  0  0  0  0  0  0  0
    8.4041   -1.0012    0.0000 H   0  0  0  0  0  0  0  0  0  0  0  0
    4.9966    1.3121    0.0000 H   0  0  0  0  0  0  0  0  0  0  0  0
    4.1996    1.3121    0.0000 H   0  0  0  0  0  0  0  0  0  0  0  0
    6.0747    3.2295    0.0000 H   0  0  0  0  0  0  0  0  0  0  0  0
    5.6762    3.9198    0.0000 H   0  0  0  0  0  0  0  0  0  0  0  0
   10.3979    2.1700    0.0000 H   0  0  0  0  0  0  0  0  0  0  0  0
    3.3335   -0.1378    0.0000 H   0  0  0  0  0  0  0  0  0  0  0  0
    4.1306   -0.1378    0.0000 H   0  0  0  0  0  0  0  0  0  0  0  0
    3.9875    3.9448    0.0000 H   0  0  0  0  0  0  0  0  0  0  0  0
    4.3860    3.2546    0.0000 H   0  0  0  0  0  0  0  0  0  0  0  0
    9.2527   -2.5111    0.0000 H   0  0  0  0  0  0  0  0  0  0  0  0
   10.6837   -0.0975    0.0000 H   0  0  0  0  0  0  0  0  0  0  0  0
   12.0772   -0.9237    0.0000 H   0  0  0  0  0  0  0  0  0  0  0  0
   12.0584   -2.5436    0.0000 H   0  0  0  0  0  0  0  0  0  0  0  0
    1.6900    0.8741    0.0000 H   0  0  0  0  0  0  0  0  0  0  0  0
    1.4631    0.0272    0.0000 H   0  0  0  0  0  0  0  0  0  0  0  0
    2.3100   -0.1998    0.0000 H   0  0  0  0  0  0  0  0  0  0  0  0
    4.0420    5.8741    0.0000 H   0  0  0  0  0  0  0  0  0  0  0  0
    3.1951    5.6472    0.0000 H   0  0  0  0  0  0  0  0  0  0  0  0
    3.4220    4.8002    0.0000 H   0  0  0  0  0  0  0  0  0  0  0  0
   10.6231   -5.3372    0.0000 H   0  0  0  0  0  0  0  0  0  0  0  0
  1 10  1  0  0  0  0
  1 15  1  0  0  0  0
  2 11  1  0  0  0  0
  2 17  1  0  0  0  0
  3 19  1  0  0  0  0
  3 26  1  0  0  0  0
  4 20  1  0  0  0  0
  4 27  1  0  0  0  0
  5 13  1  0  0  0  0
  5 16  1  0  0  0  0
  5 32  1  0  0  0  0
  6  9  1  0  0  0  0
  6 18  2  0  0  0  0
  7 13  2  0  0  0  0
  7 18  1  0  0  0  0
  8  9  1  0  0  0  0
  8 12  2  0  0  0  0
  8 13  1  0  0  0  0
  9 14  2  0  0  0  0
 10 11  2  0  0  0  0
 10 12  1  0  0  0  0
 11 14  1  0  0  0  0
 12 30  1  0  0  0  0
 14 31  1  0  0  0  0
 15 19  1  0  0  0  0
 15 33  1  0  0  0  0
 15 34  1  0  0  0  0
 16 21  1  0  0  0  0
 16 22  2  0  0  0  0
 17 20  1  0  0  0  0
 17 35  1  0  0  0  0
 17 36  1  0  0  0  0
 18 37  1  0  0  0  0
 19 38  1  0  0  0  0
 19 39  1  0  0  0  0
 20 40  1  0  0  0  0
 20 41  1  0  0  0  0
 21 23  2  0  0  0  0
 21 42  1  0  0  0  0
 22 24  1  0  0  0  0
 22 43  1  0  0  0  0
 23 25  1  0  0  0  0
 23 28  1  0  0  0  0
 24 25  2  0  0  0  0
 24 44  1  0  0  0  0
 25 45  1  0  0  0  0
 26 46  1  0  0  0  0
 26 47  1  0  0  0  0
 26 48  1  0  0  0  0
 27 49  1  0  0  0  0
 27 50  1  0  0  0  0
 27 51  1  0  0  0  0
 28 29  3  0  0  0  0
 29 52  1  0  0  0  0
M  END
> <PUBCHEM_COMPOUND_CID>
176870

> <PUBCHEM_COMPOUND_CANONICALIZED>
1

> <PUBCHEM_CACTVS_COMPLEXITY>
525

> <PUBCHEM_CACTVS_HBOND_ACCEPTOR>
7

> <PUBCHEM_CACTVS_HBOND_DONOR>
1

> <PUBCHEM_CACTVS_ROTATABLE_BOND>
11

> <PUBCHEM_CACTVS_SUBSKEYS>
AAADceB7OAAAAAAAAAAAAAAAAAAAAAAAAAA8YIAAAAAAAACx9AAAHgAQAAAADAyhngY39vbIFADgGyZjZAiCiCkxIqAJ2CA+7JiNLuLE+duGPCru0BvK6Cew0BMOIEABQgACQABAgAKEAASAAAAAAAAAAA==

> <PUBCHEM_IUPAC_OPENEYE_NAME>
N-(3-ethynylphenyl)-6,7-bis(2-methoxyethoxy)quinazolin-4-amine

> <PUBCHEM_IUPAC_CAS_NAME>
N-(3-ethynylphenyl)-6,7-bis(2-methoxyethoxy)-4-quinazolinamine

> <PUBCHEM_IUPAC_NAME_MARKUP>
<I>N</I>-(3-ethynylphenyl)-6,7-bis(2-methoxyethoxy)quinazolin-4-amine

> <PUBCHEM_IUPAC_NAME>
N-(3-ethynylphenyl)-6,7-bis(2-methoxyethoxy)quinazolin-4-amine

> <PUBCHEM_IUPAC_SYSTEMATIC_NAME>
N-(3-ethynylphenyl)-6,7-bis(2-methoxyethoxy)quinazolin-4-amine

> <PUBCHEM_IUPAC_TRADITIONAL_NAME>
[6,7-bis(2-methoxyethoxy)quinazolin-4-yl]-(3-ethynylphenyl)amine

> <PUBCHEM_IUPAC_INCHI>
InChI=1S/C22H23N3O4/c1-4-16-6-5-7-17(12-16)25-22-18-13-20(28-10-8-26-2)21(29-11-9-27-3)14-19(18)23-15-24-22/h1,5-7,12-15H,8-11H2,2-3H3,(H,23,24,25)

> <PUBCHEM_IUPAC_INCHIKEY>
AAKJLRGGTJKAMG-UHFFFAOYSA-N

> <PUBCHEM_XLOGP3_AA>
3.3

> <PUBCHEM_EXACT_MASS>
393.168856

> <PUBCHEM_MOLECULAR_FORMULA>
C22H23N3O4

> <PUBCHEM_MOLECULAR_WEIGHT>
393.4

> <PUBCHEM_OPENEYE_CAN_SMILES>
COCCOC1=C(C=C2C(=C1)C(=NC=N2)NC3=CC=CC(=C3)C#C)OCCOC

> <PUBCHEM_OPENEYE_ISO_SMILES>
COCCOC1=C(C=C2C(=C1)C(=NC=N2)NC3=CC=CC(=C3)C#C)OCCOC

> <PUBCHEM_CACTVS_TPSA>
74.7

> <PUBCHEM_MONOISOTOPIC_WEIGHT>
393.168856

> <PUBCHEM_TOTAL_CHARGE>
0

> <PUBCHEM_HEAVY_ATOM_COUNT>
29

> <PUBCHEM_ATOM_DEF_STEREO_COUNT>
0

> <PUBCHEM_ATOM_UDEF_STEREO_COUNT>
0

> <PUBCHEM_BOND_DEF_STEREO_COUNT>
0

> <PUBCHEM_BOND_UDEF_STEREO_COUNT>
0

> <PUBCHEM_ISOTOPIC_ATOM_COUNT>
0

> <PUBCHEM_COMPONENT_COUNT>
1

> <PUBCHEM_CACTVS_TAUTO_COUNT>
-1

> <PUBCHEM_COORDINATE_TYPE>
1
5
255

> <PUBCHEM_BONDANNOTATIONS>
10  11  8
10  12  8
11  14  8
16  21  8
16  22  8
21  23  8
22  24  8
23  25  8
24  25  8
6  18  8
6  9  8
7  13  8
7  18  8
8  12  8
8  13  8
8  9  8
9  14  8

$$$$
46926350
  -OEChem-02182015172D

 57 60  0     1  0  0  0  0  0999 V2000
    5.4641    4.4400    0.0000 O   0  0  0  0  0  0  0  0  0  0  0  0
    2.8660   -5.0600    0.0000 O   0  5  0  0  0  0  0  0  0  0  0  0
    3.7320    1.4400    0.0000 N   0  0  3  0  0  0  0  0  0  0  0  0
    5.4641    1.4400    0.0000 N   0  0  0  0  0  0  0  0  0  0  0  0
    6.3301   -0.0600    0.0000 N   0  0  0  0  0  0  0  0  0  0  0  0
    5.4641   -1.5600    0.0000 N   0  0  0  0  0  0  0  0  0  0  0  0
    7.2764   -0.3647    0.0000 N   0  0  0  0  0  0  0  0  0  0  0  0
    3.7320   -4.5600    0.0000 N   0  3  0  0  0  0  0  0  0  0  0  0
    3.7320    2.4400    0.0000 C   0  0  1  0  0  0  0  0  0  0  0  0
    2.8660    2.9400    0.0000 C   0  0  0  0  0  0  0  0  0  0  0  0
    2.0000    2.4400    0.0000 C   0  0  0  0  0  0  0  0  0  0  0  0
    2.8660    0.9400    0.0000 C   0  0  0  0  0  0  0  0  0  0  0  0
    2.0000    1.4400    0.0000 C   0  0  0  0  0  0  0  0  0  0  0  0
    4.5981    2.9400    0.0000 C   0  0  0  0  0  0  0  0  0  0  0  0
    4.5981    0.9400    0.0000 C   0  0  0  0  0  0  0  0  0  0  0  0
    4.5981    3.9400    0.0000 C   0  0  0  0  0  0  0  0  0  0  0  0
    4.5981   -0.0600    0.0000 C   0  0  0  0  0  0  0  0  0  0  0  0
    5.4641   -0.5600    0.0000 C   0  0  0  0  0  0  0  0  0  0  0  0
    6.3301    0.9400    0.0000 C   0  0  0  0  0  0  0  0  0  0  0  0
    7.2764    1.2447    0.0000 C   0  0  0  0  0  0  0  0  0  0  0  0
    7.5870    2.1952    0.0000 C   0  0  0  0  0  0  0  0  0  0  0  0
    7.8600    0.4400    0.0000 C   0  0  0  0  0  0  0  0  0  0  0  0
    4.5981   -2.0600    0.0000 C   0  0  0  0  0  0  0  0  0  0  0  0
    8.5655    2.4015    0.0000 C   0  0  0  0  0  0  0  0  0  0  0  0
    4.5981   -3.0600    0.0000 C   0  0  0  0  0  0  0  0  0  0  0  0
    3.7320   -3.5600    0.0000 C   0  0  0  0  0  0  0  0  0  0  0  0
    5.4641   -3.5600    0.0000 C   0  0  0  0  0  0  0  0  0  0  0  0
    5.4641   -4.5600    0.0000 C   0  0  0  0  0  0  0  0  0  0  0  0
    4.5981   -5.0600    0.0000 C   0  0  0  0  0  0  0  0  0  0  0  0
    4.2690    2.1300    0.0000 H   0  0  0  0  0  0  0  0  0  0  0  0
    3.2646    3.4150    0.0000 H   0  0  0  0  0  0  0  0  0  0  0  0
    2.4675    3.4150    0.0000 H   0  0  0  0  0  0  0  0  0  0  0  0
    1.7880    3.0226    0.0000 H   0  0  0  0  0  0  0  0  0  0  0  0
    1.3894    2.3323    0.0000 H   0  0  0  0  0  0  0  0  0  0  0  0
    2.4675    0.4651    0.0000 H   0  0  0  0  0  0  0  0  0  0  0  0
    3.2646    0.4651    0.0000 H   0  0  0  0  0  0  0  0  0  0  0  0
    1.3894    1.5477    0.0000 H   0  0  0  0  0  0  0  0  0  0  0  0
    1.7880    0.8574    0.0000 H   0  0  0  0  0  0  0  0  0  0  0  0
    4.8101    2.3574    0.0000 H   0  0  0  0  0  0  0  0  0  0  0  0
    5.2087    3.0477    0.0000 H   0  0  0  0  0  0  0  0  0  0  0  0
    4.3860    4.5226    0.0000 H   0  0  0  0  0  0  0  0  0  0  0  0
    3.9875    3.8323    0.0000 H   0  0  0  0  0  0  0  0  0  0  0  0
    4.0611   -0.3700    0.0000 H   0  0  0  0  0  0  0  0  0  0  0  0
    5.4641    5.0600    0.0000 H   0  0  0  0  0  0  0  0  0  0  0  0
    6.0010   -1.8700    0.0000 H   0  0  0  0  0  0  0  0  0  0  0  0
    7.5664    2.8149    0.0000 H   0  0  0  0  0  0  0  0  0  0  0  0
    6.9732    2.2826    0.0000 H   0  0  0  0  0  0  0  0  0  0  0  0
    8.4800    0.4400    0.0000 H   0  0  0  0  0  0  0  0  0  0  0  0
    4.3860   -1.4774    0.0000 H   0  0  0  0  0  0  0  0  0  0  0  0
    3.9875   -2.1677    0.0000 H   0  0  0  0  0  0  0  0  0  0  0  0
    8.6934    1.7948    0.0000 H   0  0  0  0  0  0  0  0  0  0  0  0
    9.1722    2.5293    0.0000 H   0  0  0  0  0  0  0  0  0  0  0  0
    8.4377    3.0082    0.0000 H   0  0  0  0  0  0  0  0  0  0  0  0
    3.1951   -3.2500    0.0000 H   0  0  0  0  0  0  0  0  0  0  0  0
    6.0010   -3.2500    0.0000 H   0  0  0  0  0  0  0  0  0  0  0  0
    6.0010   -4.8700    0.0000 H   0  0  0  0  0  0  0  0  0  0  0  0
    4.5981   -5.6800    0.0000 H   0  0  0  0  0  0  0  0  0  0  0  0
  1 16  1  0  0  0  0
  1 44  1  0  0  0  0
  2  8  1  0  0  0  0
  3  9  1  0  0  0  0
  3 12  1  0  0  0  0
  3 15  1  0  0  0  0
  4 15  2  0  0  0  0
  4 19  1  0  0  0  0
  5  7  1  0  0  0  0
  5 18  1  0  0  0  0
  5 19  1  0  0  0  0
  6 18  1  0  0  0  0
  6 23  1  0  0  0  0
  6 45  1  0  0  0  0
  7 22  2  0  0  0  0
  8 26  1  0  0  0  0
  8 29  2  0  0  0  0
  9 10  1  0  0  0  0
  9 14  1  1  0  0  0
  9 30  1  0  0  0  0
 10 11  1  0  0  0  0
 10 31  1  0  0  0  0
 10 32  1  0  0  0  0
 11 13  1  0  0  0  0
 11 33  1  0  0  0  0
 11 34  1  0  0  0  0
 12 13  1  0  0  0  0
 12 35  1  0  0  0  0
 12 36  1  0  0  0  0
 13 37  1  0  0  0  0
 13 38  1  0  0  0  0
 14 16  1  0  0  0  0
 14 39  1  0  0  0  0
 14 40  1  0  0  0  0
 15 17  1  0  0  0  0
 16 41  1  0  0  0  0
 16 42  1  0  0  0  0
 17 18  2  0  0  0  0
 17 43  1  0  0  0  0
 19 20  2  0  0  0  0
 20 21  1  0  0  0  0
 20 22  1  0  0  0  0
 21 24  1  0  0  0  0
 21 46  1  0  0  0  0
 21 47  1  0  0  0  0
 22 48  1  0  0  0  0
 23 25  1  0  0  0  0
 23 49  1  0  0  0  0
 23 50  1  0  0  0  0
 24 51  1  0  0  0  0
 24 52  1  0  0  0  0
 24 53  1  0  0  0  0
 25 26  2  0  0  0  0
 25 27  1  0  0  0  0
 26 54  1  0  0  0  0
 27 28  2  0  0  0  0
 27 55  1  0  0  0  0
 28 29  1  0  0  0  0
 28 56  1  0  0  0  0
 29 57  1  0  0  0  0
M  CHG  2   2  -1   8   1
M  END
> <PUBCHEM_COMPOUND_CID>
46926350

> <PUBCHEM_COMPOUND_CANONICALIZED>
1

> <PUBCHEM_CACTVS_COMPLEXITY>
512

> <PUBCHEM_CACTVS_HBOND_ACCEPTOR>
6

> <PUBCHEM_CACTVS_HBOND_DONOR>
2

> <PUBCHEM_CACTVS_ROTATABLE_BOND>
7

> <PUBCHEM_CACTVS_SUBSKEYS>
AAADceB7sAAAAAAAAAAAAAAAAAAAAWAAAAAsWLAAAAAAAFgB+AAAHgAcCAAADCjhmwY/sJ/YEgCiAjJnZACShCsxgqA92KA4ZJqIOOLA2dGE5Ah+mALIyCeQwCAMAAAAAAAAAAAAAAAAAAAAAAAAAAAAAA==

> <PUBCHEM_IUPAC_OPENEYE_NAME>
2-[(2S)-1-[3-ethyl-7-[(1-oxidopyridin-1-ium-3-yl)methylamino]pyrazolo[1,5-a]pyrimidin-5-yl]-2-piperidyl]ethanol

> <PUBCHEM_IUPAC_CAS_NAME>
2-[(2S)-1-[3-ethyl-7-[(1-oxido-3-pyridin-1-iumyl)methylamino]-5-pyrazolo[1,5-a]pyrimidinyl]-2-piperidinyl]ethanol

> <PUBCHEM_IUPAC_NAME_MARKUP>
2-[(2<I>S</I>)-1-[3-ethyl-7-[(1-oxidopyridin-1-ium-3-yl)methylamino]pyrazolo[1,5-a]pyrimidin-5-yl]piperidin-2-yl]ethanol

> <PUBCHEM_IUPAC_NAME>
2-[(2S)-1-[3-ethyl-7-[(1-oxidopyridin-1-ium-3-yl)methylamino]pyrazolo[1,5-a]pyrimidin-5-yl]piperidin-2-yl]ethanol

> <PUBCHEM_IUPAC_SYSTEMATIC_NAME>
2-[(2S)-1-[3-ethyl-7-[(1-oxidanidylpyridin-1-ium-3-yl)methylamino]pyrazolo[1,5-a]pyrimidin-5-yl]piperidin-2-yl]ethanol

> <PUBCHEM_IUPAC_TRADITIONAL_NAME>
2-[(2S)-1-[3-ethyl-7-[(1-oxidopyridin-1-ium-3-yl)methylamino]pyrazolo[1,5-a]pyrimidin-5-yl]-2-piperidyl]ethanol

> <PUBCHEM_IUPAC_INCHI>
InChI=1S/C21H28N6O2/c1-2-17-14-23-27-19(22-13-16-6-5-9-25(29)15-16)12-20(24-21(17)27)26-10-4-3-7-18(26)8-11-28/h5-6,9,12,14-15,18,22,28H,2-4,7-8,10-11,13H2,1H3/t18-/m0/s1

> <PUBCHEM_IUPAC_INCHIKEY>
PIMQWRZWLQKKBJ-SFHVURJKSA-N

> <PUBCHEM_XLOGP3_AA>
1.9

> <PUBCHEM_EXACT_MASS>
396.227374

> <PUBCHEM_MOLECULAR_FORMULA>
C21H28N6O2

> <PUBCHEM_MOLECULAR_WEIGHT>
396.5

> <PUBCHEM_OPENEYE_CAN_SMILES>
CCC1=C2N=C(C=C(N2N=C1)NCC3=C[N+](=CC=C3)[O-])N4CCCCC4CCO

> <PUBCHEM_OPENEYE_ISO_SMILES>
CCC1=C2N=C(C=C(N2N=C1)NCC3=C[N+](=CC=C3)[O-])N4CCCC[C@H]4CCO

> <PUBCHEM_CACTVS_TPSA>
91.2

> <PUBCHEM_MONOISOTOPIC_WEIGHT>
396.227374

> <PUBCHEM_TOTAL_CHARGE>
0

> <PUBCHEM_HEAVY_ATOM_COUNT>
29

> <PUBCHEM_ATOM_DEF_STEREO_COUNT>
1

> <PUBCHEM_ATOM_UDEF_STEREO_COUNT>
0

> <PUBCHEM_BOND_DEF_STEREO_COUNT>
0

> <PUBCHEM_BOND_UDEF_STEREO_COUNT>
0

> <PUBCHEM_ISOTOPIC_ATOM_COUNT>
0

> <PUBCHEM_COMPONENT_COUNT>
1

> <PUBCHEM_CACTVS_TAUTO_COUNT>
-1

> <PUBCHEM_COORDINATE_TYPE>
1
5
255

> <PUBCHEM_BONDANNOTATIONS>
15  17  8
17  18  8
19  20  8
20  22  8
25  26  8
25  27  8
27  28  8
28  29  8
4  15  8
4  19  8
5  18  8
5  19  8
5  7  8
7  22  8
8  26  8
8  29  8
9  14  5

$$$$
56962336
  -OEChem-02182015172D

 80 83  0     1  0  0  0  0  0999 V2000
    4.4026   -0.0933    0.0000 O   0  0  0  0  0  0  0  0  0  0  0  0
    6.7523   -1.1770    0.0000 O   0  0  0  0  0  0  0  0  0  0  0  0
    6.7485    0.9986    0.0000 O   0  0  0  0  0  0  0  0  0  0  0  0
    9.9363   -2.4984    0.0000 O   0  0  0  0  0  0  0  0  0  0  0  0
    5.3548   -2.5949    0.0000 N   0  0  3  0  0  0  0  0  0  0  0  0
    4.6783    1.6673    0.0000 N   0  0  0  0  0  0  0  0  0  0  0  0
    2.8660    1.4720    0.0000 N   0  0  0  0  0  0  0  0  0  0  0  0
    8.6512   -3.6596    0.0000 N   0  0  0  0  0  0  0  0  0  0  0  0
    2.0000    2.9720    0.0000 N   0  0  0  0  0  0  0  0  0  0  0  0
    2.8660    4.4720    0.0000 N   0  0  0  0  0  0  0  0  0  0  0  0
   10.2994   -4.1920    0.0000 N   0  0  0  0  0  0  0  0  0  0  0  0
    4.9917   -0.9013    0.0000 C   0  0  1  0  0  0  0  0  0  0  0  0
    5.9422   -0.5906    0.0000 C   0  0  2  0  0  0  0  0  0  0  0  0
    5.9405    0.4094    0.0000 C   0  0  2  0  0  0  0  0  0  0  0  0
    4.9889    0.7167    0.0000 C   0  0  1  0  0  0  0  0  0  0  0  0
    4.6844   -1.8529    0.0000 C   0  0  0  0  0  0  0  0  0  0  0  0
    5.0474   -3.5464    0.0000 C   0  0  0  0  0  0  0  0  0  0  0  0
    6.3326   -2.3853    0.0000 C   0  0  0  0  0  0  0  0  0  0  0  0
    3.7320    1.9720    0.0000 C   0  0  0  0  0  0  0  0  0  0  0  0
    5.2619    2.4720    0.0000 C   0  0  0  0  0  0  0  0  0  0  0  0
    7.0030   -3.1272    0.0000 C   0  0  0  0  0  0  0  0  0  0  0  0
    5.7178   -4.2884    0.0000 C   0  0  0  0  0  0  0  0  0  0  0  0
    4.0696   -3.7561    0.0000 C   0  0  0  0  0  0  0  0  0  0  0  0
    3.7320    2.9720    0.0000 C   0  0  0  0  0  0  0  0  0  0  0  0
    4.6783    3.2767    0.0000 C   0  0  0  0  0  0  0  0  0  0  0  0
    7.9808   -2.9176    0.0000 C   0  0  0  0  0  0  0  0  0  0  0  0
    2.8660    3.4720    0.0000 C   0  0  0  0  0  0  0  0  0  0  0  0
    2.0000    1.9720    0.0000 C   0  0  0  0  0  0  0  0  0  0  0  0
   14.2105   -3.3536    0.0000 C   0  0  0  0  0  0  0  0  0  0  0  0
    9.6290   -3.4500    0.0000 C   0  0  0  0  0  0  0  0  0  0  0  0
   13.2327   -3.5632    0.0000 C   0  0  0  0  0  0  0  0  0  0  0  0
   15.1883   -3.1440    0.0000 C   0  0  0  0  0  0  0  0  0  0  0  0
   14.4201   -4.3314    0.0000 C   0  0  0  0  0  0  0  0  0  0  0  0
   14.0009   -2.3758    0.0000 C   0  0  0  0  0  0  0  0  0  0  0  0
   11.2772   -3.9824    0.0000 C   0  0  0  0  0  0  0  0  0  0  0  0
   12.9254   -4.5148    0.0000 C   0  0  0  0  0  0  0  0  0  0  0  0
   12.5623   -2.8212    0.0000 C   0  0  0  0  0  0  0  0  0  0  0  0
   11.9476   -4.7244    0.0000 C   0  0  0  0  0  0  0  0  0  0  0  0
   11.5845   -3.0308    0.0000 C   0  0  0  0  0  0  0  0  0  0  0  0
    4.3795   -0.9993    0.0000 H   0  0  0  0  0  0  0  0  0  0  0  0
    6.4942   -0.3082    0.0000 H   0  0  0  0  0  0  0  0  0  0  0  0
    6.4934    0.1289    0.0000 H   0  0  0  0  0  0  0  0  0  0  0  0
    5.4266    1.1559    0.0000 H   0  0  0  0  0  0  0  0  0  0  0  0
    4.1364   -1.5628    0.0000 H   0  0  0  0  0  0  0  0  0  0  0  0
    4.3035   -2.3421    0.0000 H   0  0  0  0  0  0  0  0  0  0  0  0
    5.6536   -3.4165    0.0000 H   0  0  0  0  0  0  0  0  0  0  0  0
    6.8578   -2.0558    0.0000 H   0  0  0  0  0  0  0  0  0  0  0  0
    6.0993   -1.8108    0.0000 H   0  0  0  0  0  0  0  0  0  0  0  0
    7.3182   -0.9239    0.0000 H   0  0  0  0  0  0  0  0  0  0  0  0
    7.3154    0.7474    0.0000 H   0  0  0  0  0  0  0  0  0  0  0  0
    5.8819    2.4720    0.0000 H   0  0  0  0  0  0  0  0  0  0  0  0
    6.4778   -3.4567    0.0000 H   0  0  0  0  0  0  0  0  0  0  0  0
    7.2362   -3.7017    0.0000 H   0  0  0  0  0  0  0  0  0  0  0  0
    5.2578   -4.7041    0.0000 H   0  0  0  0  0  0  0  0  0  0  0  0
    6.1335   -4.7485    0.0000 H   0  0  0  0  0  0  0  0  0  0  0  0
    6.1778   -3.8728    0.0000 H   0  0  0  0  0  0  0  0  0  0  0  0
    3.9397   -3.1498    0.0000 H   0  0  0  0  0  0  0  0  0  0  0  0
    3.4634   -3.8860    0.0000 H   0  0  0  0  0  0  0  0  0  0  0  0
    4.1996   -4.3623    0.0000 H   0  0  0  0  0  0  0  0  0  0  0  0
    4.8709    3.8660    0.0000 H   0  0  0  0  0  0  0  0  0  0  0  0
    8.5060   -2.5882    0.0000 H   0  0  0  0  0  0  0  0  0  0  0  0
    7.7475   -2.3432    0.0000 H   0  0  0  0  0  0  0  0  0  0  0  0
    8.4606   -4.2496    0.0000 H   0  0  0  0  0  0  0  0  0  0  0  0
    1.4631    1.6620    0.0000 H   0  0  0  0  0  0  0  0  0  0  0  0
    2.3291    4.7820    0.0000 H   0  0  0  0  0  0  0  0  0  0  0  0
    3.4030    4.7820    0.0000 H   0  0  0  0  0  0  0  0  0  0  0  0
   15.3183   -3.7502    0.0000 H   0  0  0  0  0  0  0  0  0  0  0  0
   15.7945   -3.0140    0.0000 H   0  0  0  0  0  0  0  0  0  0  0  0
   15.0584   -2.5378    0.0000 H   0  0  0  0  0  0  0  0  0  0  0  0
   13.8139   -4.4613    0.0000 H   0  0  0  0  0  0  0  0  0  0  0  0
   14.5501   -4.9376    0.0000 H   0  0  0  0  0  0  0  0  0  0  0  0
   15.0264   -4.2014    0.0000 H   0  0  0  0  0  0  0  0  0  0  0  0
   14.6072   -2.2458    0.0000 H   0  0  0  0  0  0  0  0  0  0  0  0
   13.8710   -1.7696    0.0000 H   0  0  0  0  0  0  0  0  0  0  0  0
   13.3947   -2.5058    0.0000 H   0  0  0  0  0  0  0  0  0  0  0  0
   10.1088   -4.7820    0.0000 H   0  0  0  0  0  0  0  0  0  0  0  0
   13.3410   -4.9748    0.0000 H   0  0  0  0  0  0  0  0  0  0  0  0
   12.7529   -2.2312    0.0000 H   0  0  0  0  0  0  0  0  0  0  0  0
   11.7570   -5.3144    0.0000 H   0  0  0  0  0  0  0  0  0  0  0  0
   11.1689   -2.5708    0.0000 H   0  0  0  0  0  0  0  0  0  0  0  0
  1 12  1  0  0  0  0
  1 15  1  0  0  0  0
 13  2  1  6  0  0  0
  2 49  1  0  0  0  0
 14  3  1  6  0  0  0
  3 50  1  0  0  0  0
  4 30  2  0  0  0  0
  5 16  1  0  0  0  0
  5 17  1  0  0  0  0
  5 18  1  0  0  0  0
 15  6  1  1  0  0  0
  6 19  1  0  0  0  0
  6 20  1  0  0  0  0
  7 19  2  0  0  0  0
  7 28  1  0  0  0  0
  8 26  1  0  0  0  0
  8 30  1  0  0  0  0
  8 63  1  0  0  0  0
  9 27  1  0  0  0  0
  9 28  2  0  0  0  0
 10 27  1  0  0  0  0
 10 65  1  0  0  0  0
 10 66  1  0  0  0  0
 11 30  1  0  0  0  0
 11 35  1  0  0  0  0
 11 76  1  0  0  0  0
 12 13  1  0  0  0  0
 12 16  1  1  0  0  0
 12 40  1  0  0  0  0
 13 14  1  0  0  0  0
 13 41  1  0  0  0  0
 14 15  1  0  0  0  0
 14 42  1  0  0  0  0
 15 43  1  0  0  0  0
 16 44  1  0  0  0  0
 16 45  1  0  0  0  0
 17 22  1  0  0  0  0
 17 23  1  0  0  0  0
 17 46  1  0  0  0  0
 18 21  1  0  0  0  0
 18 47  1  0  0  0  0
 18 48  1  0  0  0  0
 19 24  1  0  0  0  0
 20 25  2  0  0  0  0
 20 51  1  0  0  0  0
 21 26  1  0  0  0  0
 21 52  1  0  0  0  0
 21 53  1  0  0  0  0
 22 54  1  0  0  0  0
 22 55  1  0  0  0  0
 22 56  1  0  0  0  0
 23 57  1  0  0  0  0
 23 58  1  0  0  0  0
 23 59  1  0  0  0  0
 24 25  1  0  0  0  0
 24 27  2  0  0  0  0
 25 60  1  0  0  0  0
 26 61  1  0  0  0  0
 26 62  1  0  0  0  0
 28 64  1  0  0  0  0
 29 31  1  0  0  0  0
 29 32  1  0  0  0  0
 29 33  1  0  0  0  0
 29 34  1  0  0  0  0
 31 36  2  0  0  0  0
 31 37  1  0  0  0  0
 32 67  1  0  0  0  0
 32 68  1  0  0  0  0
 32 69  1  0  0  0  0
 33 70  1  0  0  0  0
 33 71  1  0  0  0  0
 33 72  1  0  0  0  0
 34 73  1  0  0  0  0
 34 74  1  0  0  0  0
 34 75  1  0  0  0  0
 35 38  2  0  0  0  0
 35 39  1  0  0  0  0
 36 38  1  0  0  0  0
 36 77  1  0  0  0  0
 37 39  2  0  0  0  0
 37 78  1  0  0  0  0
 38 79  1  0  0  0  0
 39 80  1  0  0  0  0
M  END
> <PUBCHEM_COMPOUND_CID>
56962336

> <PUBCHEM_COMPOUND_CANONICALIZED>
1

> <PUBCHEM_CACTVS_COMPLEXITY>
788

> <PUBCHEM_CACTVS_HBOND_ACCEPTOR>
8

> <PUBCHEM_CACTVS_HBOND_DONOR>
5

> <PUBCHEM_CACTVS_ROTATABLE_BOND>
10

> <PUBCHEM_CACTVS_SUBSKEYS>
AAADcfB7uAAAAAAAAAAAAAAAAAAAAWJAAAA8QAAAAAAAAFgB/AAAHgAQCAAADjzhmwY/8N/MFgCoAjZndACCgCkxAqAJ2KA4ZJiLOOLA2dGPZAhvlgLbyCewkMIPiAAAAAAAAAAQAAAAAAAAAAAAAAAAAA==

> <PUBCHEM_IUPAC_OPENEYE_NAME>
1-[3-[[(2R,3S,4R,5R)-5-(4-aminopyrrolo[2,3-d]pyrimidin-7-yl)-3,4-dihydroxy-tetrahydrofuran-2-yl]methyl-isopropyl-amino]propyl]-3-(4-tert-butylphenyl)urea

> <PUBCHEM_IUPAC_CAS_NAME>
1-[3-[[(2R,3S,4R,5R)-5-(4-amino-7-pyrrolo[2,3-d]pyrimidinyl)-3,4-dihydroxy-2-oxolanyl]methyl-propan-2-ylamino]propyl]-3-(4-tert-butylphenyl)urea

> <PUBCHEM_IUPAC_NAME_MARKUP>
1-[3-[[(2<I>R</I>,3<I>S</I>,4<I>R</I>,5<I>R</I>)-5-(4-aminopyrrolo[2,3-d]pyrimidin-7-yl)-3,4-dihydroxyoxolan-2-yl]methyl-propan-2-ylamino]propyl]-3-(4-<I>tert</I>-butylphenyl)urea

> <PUBCHEM_IUPAC_NAME>
1-[3-[[(2R,3S,4R,5R)-5-(4-aminopyrrolo[2,3-d]pyrimidin-7-yl)-3,4-dihydroxyoxolan-2-yl]methyl-propan-2-ylamino]propyl]-3-(4-tert-butylphenyl)urea

> <PUBCHEM_IUPAC_SYSTEMATIC_NAME>
1-[3-[[(2R,3S,4R,5R)-5-(4-azanylpyrrolo[2,3-d]pyrimidin-7-yl)-3,4-bis(oxidanyl)oxolan-2-yl]methyl-propan-2-yl-amino]propyl]-3-(4-tert-butylphenyl)urea

> <PUBCHEM_IUPAC_TRADITIONAL_NAME>
1-[3-[[(2R,3S,4R,5R)-5-(4-aminopyrrolo[2,3-d]pyrimidin-7-yl)-3,4-dihydroxy-tetrahydrofuran-2-yl]methyl-isopropyl-amino]propyl]-3-(4-tert-butylphenyl)urea

> <PUBCHEM_IUPAC_INCHI>
InChI=1S/C28H41N7O4/c1-17(2)34(13-6-12-30-27(38)33-19-9-7-18(8-10-19)28(3,4)5)15-21-22(36)23(37)26(39-21)35-14-11-20-24(29)31-16-32-25(20)35/h7-11,14,16-17,21-23,26,36-37H,6,12-13,15H2,1-5H3,(H2,29,31,32)(H2,30,33,38)/t21-,22-,23-,26-/m1/s1

> <PUBCHEM_IUPAC_INCHIKEY>
WXRGFPHDRFQODR-ICLZECGLSA-N

> <PUBCHEM_XLOGP3_AA>
2.4

> <PUBCHEM_EXACT_MASS>
539.322003

> <PUBCHEM_MOLECULAR_FORMULA>
C28H41N7O4

> <PUBCHEM_MOLECULAR_WEIGHT>
539.7

> <PUBCHEM_OPENEYE_CAN_SMILES>
CC(C)N(CCCNC(=O)NC1=CC=C(C=C1)C(C)(C)C)CC2C(C(C(O2)N3C=CC4=C(N=CN=C43)N)O)O

> <PUBCHEM_OPENEYE_ISO_SMILES>
CC(C)N(CCCNC(=O)NC1=CC=C(C=C1)C(C)(C)C)C[C@@H]2[C@H]([C@H]([C@@H](O2)N3C=CC4=C(N=CN=C43)N)O)O

> <PUBCHEM_CACTVS_TPSA>
151

> <PUBCHEM_MONOISOTOPIC_WEIGHT>
539.322003

> <PUBCHEM_TOTAL_CHARGE>
0

> <PUBCHEM_HEAVY_ATOM_COUNT>
39

> <PUBCHEM_ATOM_DEF_STEREO_COUNT>
4

> <PUBCHEM_ATOM_UDEF_STEREO_COUNT>
0

> <PUBCHEM_BOND_DEF_STEREO_COUNT>
0

> <PUBCHEM_BOND_UDEF_STEREO_COUNT>
0

> <PUBCHEM_ISOTOPIC_ATOM_COUNT>
0

> <PUBCHEM_COMPONENT_COUNT>
1

> <PUBCHEM_CACTVS_TAUTO_COUNT>
-1

> <PUBCHEM_COORDINATE_TYPE>
1
5
255

> <PUBCHEM_BONDANNOTATIONS>
12  16  5
19  24  8
13  2  6
20  25  8
24  25  8
24  27  8
14  3  6
31  36  8
31  37  8
35  38  8
35  39  8
36  38  8
37  39  8
15  6  5
6  19  8
6  20  8
7  19  8
7  28  8
9  27  8
9  28  8

$$$$
9926054
  -OEChem-02182015172D

 38 39  0     0  0  0  0  0  0999 V2000
    7.3556    4.1524    0.0000 Cl  0  0  0  0  0  0  0  0  0  0  0  0
    2.1498    5.1200    0.0000 N   0  0  0  0  0  0  0  0  0  0  0  0
    3.8819    4.1200    0.0000 N   0  0  0  0  0  0  0  0  0  0  0  0
    3.0158    2.6200    0.0000 N   0  0  0  0  0  0  0  0  0  0  0  0
    1.2036    3.8153    0.0000 N   0  0  0  0  0  0  0  0  0  0  0  0
    4.7479    0.6200    0.0000 N   0  0  0  0  0  0  0  0  0  0  0  0
    3.0158    5.6200    0.0000 C   0  0  0  0  0  0  0  0  0  0  0  0
    2.1498    4.1200    0.0000 C   0  0  0  0  0  0  0  0  0  0  0  0
    1.2036    5.4247    0.0000 C   0  0  0  0  0  0  0  0  0  0  0  0
    3.8819    5.1200    0.0000 C   0  0  0  0  0  0  0  0  0  0  0  0
    3.0158    3.6200    0.0000 C   0  0  0  0  0  0  0  0  0  0  0  0
    2.9998    6.6615    0.0000 C   0  0  0  0  0  0  0  0  0  0  0  0
    3.8978    7.1893    0.0000 C   0  0  0  0  0  0  0  0  0  0  0  0
    0.6200    4.6200    0.0000 C   0  0  0  0  0  0  0  0  0  0  0  0
    4.7919    5.6268    0.0000 C   0  0  0  0  0  0  0  0  0  0  0  0
    3.8819    2.1200    0.0000 C   0  0  0  0  0  0  0  0  0  0  0  0
    0.8929    6.3752    0.0000 C   0  0  0  0  0  0  0  0  0  0  0  0
    4.7999    6.6684    0.0000 C   0  0  0  0  0  0  0  0  0  0  0  0
    3.8819    1.1200    0.0000 C   0  0  0  0  0  0  0  0  0  0  0  0
    3.8940    8.1892    0.0000 C   0  0  0  0  0  0  0  0  0  0  0  0
    2.4593    6.9653    0.0000 H   0  0  0  0  0  0  0  0  0  0  0  0
    0.0000    4.6200    0.0000 H   0  0  0  0  0  0  0  0  0  0  0  0
    2.4789    2.3100    0.0000 H   0  0  0  0  0  0  0  0  0  0  0  0
    5.3252    5.3107    0.0000 H   0  0  0  0  0  0  0  0  0  0  0  0
    4.4925    2.0123    0.0000 H   0  0  0  0  0  0  0  0  0  0  0  0
    4.0939    2.7026    0.0000 H   0  0  0  0  0  0  0  0  0  0  0  0
    1.4823    6.5679    0.0000 H   0  0  0  0  0  0  0  0  0  0  0  0
    0.7003    6.9646    0.0000 H   0  0  0  0  0  0  0  0  0  0  0  0
    0.3036    6.1826    0.0000 H   0  0  0  0  0  0  0  0  0  0  0  0
    5.3380    6.9764    0.0000 H   0  0  0  0  0  0  0  0  0  0  0  0
    3.2713    1.2277    0.0000 H   0  0  0  0  0  0  0  0  0  0  0  0
    3.6698    0.5374    0.0000 H   0  0  0  0  0  0  0  0  0  0  0  0
    4.5140    8.1916    0.0000 H   0  0  0  0  0  0  0  0  0  0  0  0
    3.8916    8.8092    0.0000 H   0  0  0  0  0  0  0  0  0  0  0  0
    3.2740    8.1869    0.0000 H   0  0  0  0  0  0  0  0  0  0  0  0
    4.7479    0.0000    0.0000 H   0  0  0  0  0  0  0  0  0  0  0  0
    5.2848    0.9300    0.0000 H   0  0  0  0  0  0  0  0  0  0  0  0
    8.3556    4.1524    0.0000 H   0  0  0  0  0  0  0  0  0  0  0  0
  1 38  1  0  0  0  0
  2  7  1  0  0  0  0
  2  8  1  0  0  0  0
  2  9  1  0  0  0  0
  3 10  1  0  0  0  0
  3 11  2  0  0  0  0
  4 11  1  0  0  0  0
  4 16  1  0  0  0  0
  4 23  1  0  0  0  0
  5  8  2  0  0  0  0
  5 14  1  0  0  0  0
  6 19  1  0  0  0  0
  6 36  1  0  0  0  0
  6 37  1  0  0  0  0
  7 10  2  0  0  0  0
  7 12  1  0  0  0  0
  8 11  1  0  0  0  0
  9 14  2  0  0  0  0
  9 17  1  0  0  0  0
 10 15  1  0  0  0  0
 12 13  2  0  0  0  0
 12 21  1  0  0  0  0
 13 18  1  0  0  0  0
 13 20  1  0  0  0  0
 14 22  1  0  0  0  0
 15 18  2  0  0  0  0
 15 24  1  0  0  0  0
 16 19  1  0  0  0  0
 16 25  1  0  0  0  0
 16 26  1  0  0  0  0
 17 27  1  0  0  0  0
 17 28  1  0  0  0  0
 17 29  1  0  0  0  0
 18 30  1  0  0  0  0
 19 31  1  0  0  0  0
 19 32  1  0  0  0  0
 20 33  1  0  0  0  0
 20 34  1  0  0  0  0
 20 35  1  0  0  0  0
M  END
> <PUBCHEM_COMPOUND_CID>
9926054

> <PUBCHEM_COMPOUND_CANONICALIZED>
1

> <PUBCHEM_CACTVS_COMPLEXITY>
310

> <PUBCHEM_CACTVS_HBOND_ACCEPTOR>
4

> <PUBCHEM_CACTVS_HBOND_DONOR>
3

> <PUBCHEM_CACTVS_ROTATABLE_BOND>
3

> <PUBCHEM_CACTVS_SUBSKEYS>
AAADceBzgAAEAAAAAAAAAAAAAAAAAWAAAAA8QAAAAAAAAFix8AAAHAAQAAAADAjBHwQ/8L/MGACgAzZnZACCgC0xEqAJ2KA4dJiIaOLAmZGUIAhokALIyCcQgAAOCAAAQAAAACAQAACAAAAAQAAAAAAAAA==

> <PUBCHEM_IUPAC_OPENEYE_NAME>
N'-(1,8-dimethylimidazo[1,2-a]quinoxalin-4-yl)ethane-1,2-diamine;hydrochloride

> <PUBCHEM_IUPAC_CAS_NAME>
N'-(1,8-dimethyl-4-imidazo[1,2-a]quinoxalinyl)ethane-1,2-diamine;hydrochloride

> <PUBCHEM_IUPAC_NAME_MARKUP>
<I>N</I>&apos;-(1,8-dimethylimidazo[1,2-a]quinoxalin-4-yl)ethane-1,2-diamine;hydrochloride

> <PUBCHEM_IUPAC_NAME>
N'-(1,8-dimethylimidazo[1,2-a]quinoxalin-4-yl)ethane-1,2-diamine;hydrochloride

> <PUBCHEM_IUPAC_SYSTEMATIC_NAME>
N'-(1,8-dimethylimidazo[1,2-a]quinoxalin-4-yl)ethane-1,2-diamine;hydrochloride

> <PUBCHEM_IUPAC_TRADITIONAL_NAME>
2-aminoethyl-(1,8-dimethylimidazo[1,2-a]quinoxalin-4-yl)amine;hydrochloride

> <PUBCHEM_IUPAC_INCHI>
InChI=1S/C14H17N5.ClH/c1-9-3-4-11-12(7-9)19-10(2)8-17-14(19)13(18-11)16-6-5-15;/h3-4,7-8H,5-6,15H2,1-2H3,(H,16,18);1H

> <PUBCHEM_IUPAC_INCHIKEY>
MIDKPVLYXNLFGZ-UHFFFAOYSA-N

> <PUBCHEM_EXACT_MASS>
291.125073

> <PUBCHEM_MOLECULAR_FORMULA>
C14H18ClN5

> <PUBCHEM_MOLECULAR_WEIGHT>
291.78

> <PUBCHEM_OPENEYE_CAN_SMILES>
CC1=CC2=C(C=C1)N=C(C3=NC=C(N23)C)NCCN.Cl

> <PUBCHEM_OPENEYE_ISO_SMILES>
CC1=CC2=C(C=C1)N=C(C3=NC=C(N23)C)NCCN.Cl

> <PUBCHEM_CACTVS_TPSA>
68.2

> <PUBCHEM_MONOISOTOPIC_WEIGHT>
291.125073

> <PUBCHEM_TOTAL_CHARGE>
0

> <PUBCHEM_HEAVY_ATOM_COUNT>
20

> <PUBCHEM_ATOM_DEF_STEREO_COUNT>
0

> <PUBCHEM_ATOM_UDEF_STEREO_COUNT>
0

> <PUBCHEM_BOND_DEF_STEREO_COUNT>
0

> <PUBCHEM_BOND_UDEF_STEREO_COUNT>
0

> <PUBCHEM_ISOTOPIC_ATOM_COUNT>
0

> <PUBCHEM_COMPONENT_COUNT>
2

> <PUBCHEM_CACTVS_TAUTO_COUNT>
-1

> <PUBCHEM_COORDINATE_TYPE>
1
5
255

> <PUBCHEM_BONDANNOTATIONS>
10  15  8
12  13  8
13  18  8
15  18  8
2  7  8
2  8  8
2  9  8
3  10  8
3  11  8
5  14  8
5  8  8
7  10  8
7  12  8
8  11  8
9  14  8

$$$$
44819241
  -OEChem-02182015172D

 42 46  0     1  0  0  0  0  0999 V2000
    7.9294   -3.1846    0.0000 F   0  0  0  0  0  0  0  0  0  0  0  0
    5.3147    4.2846    0.0000 F   0  0  0  0  0  0  0  0  0  0  0  0
    4.4366   -4.2846    0.0000 O   0  0  0  0  0  0  0  0  0  0  0  0
    6.1808   -0.2154    0.0000 N   0  0  0  0  0  0  0  0  0  0  0  0
    3.5387   -1.7222    0.0000 N   0  0  0  0  0  0  0  0  0  0  0  0
    2.6691   -0.1221    0.0000 N   0  0  0  0  0  0  0  0  0  0  0  0
    3.5307   -2.7638    0.0000 N   0  0  0  0  0  0  0  0  0  0  0  0
    3.4782    1.2792    0.0000 N   0  0  0  0  0  0  0  0  0  0  0  0
    2.0000    0.6210    0.0000 N   0  0  0  0  0  0  0  0  0  0  0  0
    4.4487   -0.2154    0.0000 C   0  0  2  0  0  0  0  0  0  0  0  0
    5.3147    0.2846    0.0000 C   0  0  1  0  0  0  0  0  0  0  0  0
    4.4487   -1.2154    0.0000 C   0  0  0  0  0  0  0  0  0  0  0  0
    5.3147   -1.7154    0.0000 C   0  0  0  0  0  0  0  0  0  0  0  0
    3.5827    0.2846    0.0000 C   0  0  0  0  0  0  0  0  0  0  0  0
    6.1808   -1.2154    0.0000 C   0  0  0  0  0  0  0  0  0  0  0  0
    5.3147    1.2846    0.0000 C   0  0  0  0  0  0  0  0  0  0  0  0
    5.3308   -2.7569    0.0000 C   0  0  0  0  0  0  0  0  0  0  0  0
    7.0402   -1.7102    0.0000 C   0  0  0  0  0  0  0  0  0  0  0  0
    4.4328   -3.2846    0.0000 C   0  0  0  0  0  0  0  0  0  0  0  0
    6.2079   -3.2196    0.0000 C   0  0  0  0  0  0  0  0  0  0  0  0
    4.4487    1.7846    0.0000 C   0  0  0  0  0  0  0  0  0  0  0  0
    6.1808    1.7846    0.0000 C   0  0  0  0  0  0  0  0  0  0  0  0
    7.0536   -2.7018    0.0000 C   0  0  0  0  0  0  0  0  0  0  0  0
    2.4612   -1.1003    0.0000 C   0  0  0  0  0  0  0  0  0  0  0  0
    2.5000    1.4871    0.0000 C   0  0  0  0  0  0  0  0  0  0  0  0
    4.4487    2.7846    0.0000 C   0  0  0  0  0  0  0  0  0  0  0  0
    6.1808    2.7846    0.0000 C   0  0  0  0  0  0  0  0  0  0  0  0
    5.3147    3.2846    0.0000 C   0  0  0  0  0  0  0  0  0  0  0  0
    4.4487    0.6346    0.0000 H   0  0  0  0  0  0  0  0  0  0  0  0
    5.8517    0.5946    0.0000 H   0  0  0  0  0  0  0  0  0  0  0  0
    3.0054   -1.4060    0.0000 H   0  0  0  0  0  0  0  0  0  0  0  0
    7.5748   -1.3962    0.0000 H   0  0  0  0  0  0  0  0  0  0  0  0
    2.9925   -3.0718    0.0000 H   0  0  0  0  0  0  0  0  0  0  0  0
    6.2277   -3.8393    0.0000 H   0  0  0  0  0  0  0  0  0  0  0  0
    3.9118    1.4746    0.0000 H   0  0  0  0  0  0  0  0  0  0  0  0
    6.7177    1.4746    0.0000 H   0  0  0  0  0  0  0  0  0  0  0  0
    1.8548   -0.9714    0.0000 H   0  0  0  0  0  0  0  0  0  0  0  0
    2.3323   -1.7067    0.0000 H   0  0  0  0  0  0  0  0  0  0  0  0
    3.0677   -1.2292    0.0000 H   0  0  0  0  0  0  0  0  0  0  0  0
    2.2478    2.0535    0.0000 H   0  0  0  0  0  0  0  0  0  0  0  0
    3.9118    3.0946    0.0000 H   0  0  0  0  0  0  0  0  0  0  0  0
    6.7177    3.0946    0.0000 H   0  0  0  0  0  0  0  0  0  0  0  0
  1 23  1  0  0  0  0
  2 28  1  0  0  0  0
  3 19  2  0  0  0  0
  4 11  1  0  0  0  0
  4 15  2  0  0  0  0
  5  7  1  0  0  0  0
  5 12  1  0  0  0  0
  5 31  1  0  0  0  0
  6  9  1  0  0  0  0
  6 14  1  0  0  0  0
  6 24  1  0  0  0  0
  7 19  1  0  0  0  0
  7 33  1  0  0  0  0
  8 14  2  0  0  0  0
  8 25  1  0  0  0  0
  9 25  2  0  0  0  0
 10 11  1  0  0  0  0
 10 12  1  0  0  0  0
 10 14  1  0  0  0  0
 10 29  1  1  0  0  0
 11 16  1  1  0  0  0
 11 30  1  0  0  0  0
 12 13  2  0  0  0  0
 13 15  1  0  0  0  0
 13 17  1  0  0  0  0
 15 18  1  0  0  0  0
 16 21  2  0  0  0  0
 16 22  1  0  0  0  0
 17 19  1  0  0  0  0
 17 20  2  0  0  0  0
 18 23  2  0  0  0  0
 18 32  1  0  0  0  0
 20 23  1  0  0  0  0
 20 34  1  0  0  0  0
 21 26  1  0  0  0  0
 21 35  1  0  0  0  0
 22 27  2  0  0  0  0
 22 36  1  0  0  0  0
 24 37  1  0  0  0  0
 24 38  1  0  0  0  0
 24 39  1  0  0  0  0
 25 40  1  0  0  0  0
 26 28  2  0  0  0  0
 26 41  1  0  0  0  0
 27 28  1  0  0  0  0
 27 42  1  0  0  0  0
M  END
> <PUBCHEM_COMPOUND_CID>
44819241

> <PUBCHEM_COMPOUND_CANONICALIZED>
1

> <PUBCHEM_CACTVS_COMPLEXITY>
826

> <PUBCHEM_CACTVS_HBOND_ACCEPTOR>
7

> <PUBCHEM_CACTVS_HBOND_DONOR>
2

> <PUBCHEM_CACTVS_ROTATABLE_BOND>
2

> <PUBCHEM_CACTVS_SUBSKEYS>
AAADccB7oYAAAAAAAAAAAAAAAAAAAWAAAAAwQIEAAAAAAACBwAAAHwAYAAAADSjBmww3EIZqEACqAydzdACSgAswgKIf6AE4BNiIKDKA2RGEIABomAIIiYcYgMAOAAAAAAAAAAAAAAAAAAAAAAAAAAAAAA==

> <PUBCHEM_IUPAC_OPENEYE_NAME>
(11S,12R)-7-fluoro-11-(4-fluorophenyl)-12-(2-methyl-1,2,4-triazol-3-yl)-2,3,10-triazatricyclo[7.3.1.05,13]trideca-1(13),5,7,9-tetraen-4-one

> <PUBCHEM_IUPAC_CAS_NAME>
(11S,12R)-7-fluoro-11-(4-fluorophenyl)-12-(2-methyl-1,2,4-triazol-3-yl)-2,3,10-triazatricyclo[7.3.1.05,13]trideca-1(13),5,7,9-tetraen-4-one

> <PUBCHEM_IUPAC_NAME_MARKUP>
(11<I>S</I>,12<I>R</I>)-7-fluoro-11-(4-fluorophenyl)-12-(2-methyl-1,2,4-triazol-3-yl)-2,3,10-triazatricyclo[7.3.1.0<SUP>5,13</SUP>]trideca-1(13),5,7,9-tetraen-4-one

> <PUBCHEM_IUPAC_NAME>
(11S,12R)-7-fluoro-11-(4-fluorophenyl)-12-(2-methyl-1,2,4-triazol-3-yl)-2,3,10-triazatricyclo[7.3.1.05,13]trideca-1(13),5,7,9-tetraen-4-one

> <PUBCHEM_IUPAC_SYSTEMATIC_NAME>
(11S,12R)-7-fluoranyl-11-(4-fluorophenyl)-12-(2-methyl-1,2,4-triazol-3-yl)-2,3,10-triazatricyclo[7.3.1.05,13]trideca-1(13),5,7,9-tetraen-4-one

> <PUBCHEM_IUPAC_TRADITIONAL_NAME>
(11S,12R)-7-fluoro-11-(4-fluorophenyl)-12-(2-methyl-1,2,4-triazol-3-yl)-2,3,10-triazatricyclo[7.3.1.05,13]trideca-1(13),5,7,9-tetraen-4-one

> <PUBCHEM_IUPAC_INCHI>
InChI=1S/C19H14F2N6O/c1-27-18(22-8-23-27)15-16(9-2-4-10(20)5-3-9)24-13-7-11(21)6-12-14(13)17(15)25-26-19(12)28/h2-8,15-16,25H,1H3,(H,26,28)/t15-,16-/m1/s1

> <PUBCHEM_IUPAC_INCHIKEY>
IUEWAGVJRJORLA-HZPDHXFCSA-N

> <PUBCHEM_XLOGP3_AA>
1.4

> <PUBCHEM_EXACT_MASS>
380.119715

> <PUBCHEM_MOLECULAR_FORMULA>
C19H14F2N6O

> <PUBCHEM_MOLECULAR_WEIGHT>
380.4

> <PUBCHEM_OPENEYE_CAN_SMILES>
CN1C(=NC=N1)C2C(N=C3C=C(C=C4C3=C2NNC4=O)F)C5=CC=C(C=C5)F

> <PUBCHEM_OPENEYE_ISO_SMILES>
CN1C(=NC=N1)[C@@H]2[C@H](N=C3C=C(C=C4C3=C2NNC4=O)F)C5=CC=C(C=C5)F

> <PUBCHEM_CACTVS_TPSA>
84.2

> <PUBCHEM_MONOISOTOPIC_WEIGHT>
380.119715

> <PUBCHEM_TOTAL_CHARGE>
0

> <PUBCHEM_HEAVY_ATOM_COUNT>
28

> <PUBCHEM_ATOM_DEF_STEREO_COUNT>
2

> <PUBCHEM_ATOM_UDEF_STEREO_COUNT>
0

> <PUBCHEM_BOND_DEF_STEREO_COUNT>
0

> <PUBCHEM_BOND_UDEF_STEREO_COUNT>
0

> <PUBCHEM_ISOTOPIC_ATOM_COUNT>
0

> <PUBCHEM_COMPONENT_COUNT>
1

> <PUBCHEM_CACTVS_TAUTO_COUNT>
-1

> <PUBCHEM_COORDINATE_TYPE>
1
5
255

> <PUBCHEM_BONDANNOTATIONS>
10  29  5
11  16  5
13  15  8
13  17  8
15  18  8
16  21  8
16  22  8
17  20  8
18  23  8
20  23  8
21  26  8
22  27  8
26  28  8
27  28  8
6  14  8
6  9  8
8  14  8
8  25  8
9  25  8

$$$$
25126798
  -OEChem-02182015172D

 41 44  0     1  0  0  0  0  0999 V2000
    3.3660    0.8006    0.0000 N   0  0  0  0  0  0  0  0  0  0  0  0
    2.3660    0.8006    0.0000 N   0  0  0  0  0  0  0  0  0  0  0  0
    2.0000   -2.2383    0.0000 N   0  0  0  0  0  0  0  0  0  0  0  0
    6.1239    3.1231    0.0000 N   0  0  0  0  0  0  0  0  0  0  0  0
    4.6783   -3.5430    0.0000 N   0  0  0  0  0  0  0  0  0  0  0  0
    2.8660   -3.7383    0.0000 N   0  0  0  0  0  0  0  0  0  0  0  0
    3.5471    2.5231    0.0000 C   0  0  0  0  0  0  0  0  0  0  0  0
    4.0471    3.3892    0.0000 C   0  0  0  0  0  0  0  0  0  0  0  0
    2.5689    2.7311    0.0000 C   0  0  0  0  0  0  0  0  0  0  0  0
    3.9538    1.6096    0.0000 C   0  0  1  0  0  0  0  0  0  0  0  0
    3.3779    4.1323    0.0000 C   0  0  0  0  0  0  0  0  0  0  0  0
    2.4644    3.7256    0.0000 C   0  0  0  0  0  0  0  0  0  0  0  0
    4.9483    1.5051    0.0000 C   0  0  0  0  0  0  0  0  0  0  0  0
    3.6750   -0.1505    0.0000 C   0  0  0  0  0  0  0  0  0  0  0  0
    2.8660   -0.7383    0.0000 C   0  0  0  0  0  0  0  0  0  0  0  0
    5.5361    2.3141    0.0000 C   0  0  0  0  0  0  0  0  0  0  0  0
    2.0570   -0.1505    0.0000 C   0  0  0  0  0  0  0  0  0  0  0  0
    2.8660   -1.7383    0.0000 C   0  0  0  0  0  0  0  0  0  0  0  0
    3.7320   -2.2383    0.0000 C   0  0  0  0  0  0  0  0  0  0  0  0
    3.7320   -3.2383    0.0000 C   0  0  0  0  0  0  0  0  0  0  0  0
    4.6783   -1.9335    0.0000 C   0  0  0  0  0  0  0  0  0  0  0  0
    5.2619   -2.7383    0.0000 C   0  0  0  0  0  0  0  0  0  0  0  0
    2.0000   -3.2383    0.0000 C   0  0  0  0  0  0  0  0  0  0  0  0
    4.1662    2.4907    0.0000 H   0  0  0  0  0  0  0  0  0  0  0  0
    4.5487    3.0247    0.0000 H   0  0  0  0  0  0  0  0  0  0  0  0
    4.4619    3.8499    0.0000 H   0  0  0  0  0  0  0  0  0  0  0  0
    1.9489    2.7311    0.0000 H   0  0  0  0  0  0  0  0  0  0  0  0
    2.5041    2.1144    0.0000 H   0  0  0  0  0  0  0  0  0  0  0  0
    4.2060    1.0432    0.0000 H   0  0  0  0  0  0  0  0  0  0  0  0
    3.8795    4.4967    0.0000 H   0  0  0  0  0  0  0  0  0  0  0  0
    3.0679    4.6692    0.0000 H   0  0  0  0  0  0  0  0  0  0  0  0
    2.2728    4.3152    0.0000 H   0  0  0  0  0  0  0  0  0  0  0  0
    1.8580    3.5967    0.0000 H   0  0  0  0  0  0  0  0  0  0  0  0
    4.7774    0.9091    0.0000 H   0  0  0  0  0  0  0  0  0  0  0  0
    5.5056    1.2333    0.0000 H   0  0  0  0  0  0  0  0  0  0  0  0
    4.2647   -0.3421    0.0000 H   0  0  0  0  0  0  0  0  0  0  0  0
    1.4674   -0.3421    0.0000 H   0  0  0  0  0  0  0  0  0  0  0  0
    4.8709   -1.3442    0.0000 H   0  0  0  0  0  0  0  0  0  0  0  0
    4.8709   -4.1323    0.0000 H   0  0  0  0  0  0  0  0  0  0  0  0
    5.8819   -2.7383    0.0000 H   0  0  0  0  0  0  0  0  0  0  0  0
    1.4631   -3.5483    0.0000 H   0  0  0  0  0  0  0  0  0  0  0  0
  1  2  1  0  0  0  0
  1 10  1  0  0  0  0
  1 14  1  0  0  0  0
  2 17  2  0  0  0  0
  3 18  1  0  0  0  0
  3 23  2  0  0  0  0
  4 16  3  0  0  0  0
  5 20  1  0  0  0  0
  5 22  1  0  0  0  0
  5 39  1  0  0  0  0
  6 20  2  0  0  0  0
  6 23  1  0  0  0  0
  7  8  1  0  0  0  0
  7  9  1  0  0  0  0
  7 10  1  0  0  0  0
  7 24  1  0  0  0  0
  8 11  1  0  0  0  0
  8 25  1  0  0  0  0
  8 26  1  0  0  0  0
  9 12  1  0  0  0  0
  9 27  1  0  0  0  0
  9 28  1  0  0  0  0
 10 13  1  1  0  0  0
 10 29  1  0  0  0  0
 11 12  1  0  0  0  0
 11 30  1  0  0  0  0
 11 31  1  0  0  0  0
 12 32  1  0  0  0  0
 12 33  1  0  0  0  0
 13 16  1  0  0  0  0
 13 34  1  0  0  0  0
 13 35  1  0  0  0  0
 14 15  2  0  0  0  0
 14 36  1  0  0  0  0
 15 17  1  0  0  0  0
 15 18  1  0  0  0  0
 17 37  1  0  0  0  0
 18 19  2  0  0  0  0
 19 20  1  0  0  0  0
 19 21  1  0  0  0  0
 21 22  2  0  0  0  0
 21 38  1  0  0  0  0
 22 40  1  0  0  0  0
 23 41  1  0  0  0  0
M  END
> <PUBCHEM_COMPOUND_CID>
25126798

> <PUBCHEM_COMPOUND_CANONICALIZED>
1

> <PUBCHEM_CACTVS_COMPLEXITY>
453

> <PUBCHEM_CACTVS_HBOND_ACCEPTOR>
4

> <PUBCHEM_CACTVS_HBOND_DONOR>
1

> <PUBCHEM_CACTVS_ROTATABLE_BOND>
4

> <PUBCHEM_CACTVS_SUBSKEYS>
AAADceB7gAAAAAAAAAAAAAAAAAAAAeLEAAAsAAAAAAAAAFgB/gAAHAAYAAAADSjBHwQ9sN7JkACyBzZnZACShCmxgqAZ2aA4ZJiIqOLA2dGEpAhomALIyC8QgIAOAAAAAAAAAAAAAAAAAAAAAAAAAAAAAA==

> <PUBCHEM_IUPAC_OPENEYE_NAME>
(3R)-3-cyclopentyl-3-[4-(7H-pyrrolo[2,3-d]pyrimidin-4-yl)pyrazol-1-yl]propanenitrile

> <PUBCHEM_IUPAC_CAS_NAME>
(3R)-3-cyclopentyl-3-[4-(7H-pyrrolo[2,3-d]pyrimidin-4-yl)-1-pyrazolyl]propanenitrile

> <PUBCHEM_IUPAC_NAME_MARKUP>
(3<I>R</I>)-3-cyclopentyl-3-[4-(7<I>H</I>-pyrrolo[2,3-d]pyrimidin-4-yl)pyrazol-1-yl]propanenitrile

> <PUBCHEM_IUPAC_NAME>
(3R)-3-cyclopentyl-3-[4-(7H-pyrrolo[2,3-d]pyrimidin-4-yl)pyrazol-1-yl]propanenitrile

> <PUBCHEM_IUPAC_SYSTEMATIC_NAME>
(3R)-3-cyclopentyl-3-[4-(7H-pyrrolo[2,3-d]pyrimidin-4-yl)pyrazol-1-yl]propanenitrile

> <PUBCHEM_IUPAC_TRADITIONAL_NAME>
(3R)-3-cyclopentyl-3-[4-(7H-pyrrolo[2,3-d]pyrimidin-4-yl)pyrazol-1-yl]propionitrile

> <PUBCHEM_IUPAC_INCHI>
InChI=1S/C17H18N6/c18-7-5-15(12-3-1-2-4-12)23-10-13(9-22-23)16-14-6-8-19-17(14)21-11-20-16/h6,8-12,15H,1-5H2,(H,19,20,21)/t15-/m1/s1

> <PUBCHEM_IUPAC_INCHIKEY>
HFNKQEVNSGCOJV-OAHLLOKOSA-N

> <PUBCHEM_XLOGP3_AA>
2.1

> <PUBCHEM_EXACT_MASS>
306.159295

> <PUBCHEM_MOLECULAR_FORMULA>
C17H18N6

> <PUBCHEM_MOLECULAR_WEIGHT>
306.4

> <PUBCHEM_OPENEYE_CAN_SMILES>
C1CCC(C1)C(CC#N)N2C=C(C=N2)C3=C4C=CNC4=NC=N3

> <PUBCHEM_OPENEYE_ISO_SMILES>
C1CCC(C1)[C@@H](CC#N)N2C=C(C=N2)C3=C4C=CNC4=NC=N3

> <PUBCHEM_CACTVS_TPSA>
83.2

> <PUBCHEM_MONOISOTOPIC_WEIGHT>
306.159295

> <PUBCHEM_TOTAL_CHARGE>
0

> <PUBCHEM_HEAVY_ATOM_COUNT>
23

> <PUBCHEM_ATOM_DEF_STEREO_COUNT>
1

> <PUBCHEM_ATOM_UDEF_STEREO_COUNT>
0

> <PUBCHEM_BOND_DEF_STEREO_COUNT>
0

> <PUBCHEM_BOND_UDEF_STEREO_COUNT>
0

> <PUBCHEM_ISOTOPIC_ATOM_COUNT>
0

> <PUBCHEM_COMPONENT_COUNT>
1

> <PUBCHEM_CACTVS_TAUTO_COUNT>
-1

> <PUBCHEM_COORDINATE_TYPE>
1
5
255

> <PUBCHEM_BONDANNOTATIONS>
1  14  8
1  2  8
10  13  5
14  15  8
15  17  8
18  19  8
19  20  8
19  21  8
2  17  8
21  22  8
3  18  8
3  23  8
5  20  8
5  22  8
6  20  8
6  23  8

$$$$
24871506
  -OEChem-02182015172D

 49 51  0     0  0  0  0  0  0999 V2000
   10.7282    2.0223    0.0000 O   0  0  0  0  0  0  0  0  0  0  0  0
    4.6497   -2.5123    0.0000 O   0  0  0  0  0  0  0  0  0  0  0  0
    2.8680    0.5464    0.0000 O   0  0  0  0  0  0  0  0  0  0  0  0
    6.3981   -2.4777    0.0000 O   0  0  0  0  0  0  0  0  0  0  0  0
   13.3263    1.5223    0.0000 O   0  0  0  0  0  0  0  0  0  0  0  0
    6.3981    0.5223    0.0000 N   0  0  0  0  0  0  0  0  0  0  0  0
    7.2641   -0.9777    0.0000 N   0  0  0  0  0  0  0  0  0  0  0  0
    8.1301    0.5223    0.0000 C   0  0  0  0  0  0  0  0  0  0  0  0
    7.2641    0.0223    0.0000 C   0  0  0  0  0  0  0  0  0  0  0  0
    5.5320    0.0223    0.0000 C   0  0  0  0  0  0  0  0  0  0  0  0
    9.8622    0.5223    0.0000 C   0  0  0  0  0  0  0  0  0  0  0  0
    8.9962    2.0223    0.0000 C   0  0  0  0  0  0  0  0  0  0  0  0
    9.8622    1.5223    0.0000 C   0  0  0  0  0  0  0  0  0  0  0  0
    5.5320   -0.9777    0.0000 C   0  0  0  0  0  0  0  0  0  0  0  0
    8.9962    0.0223    0.0000 C   0  0  0  0  0  0  0  0  0  0  0  0
    8.1301    1.5223    0.0000 C   0  0  0  0  0  0  0  0  0  0  0  0
    4.6381   -1.5124    0.0000 C   0  0  0  0  0  0  0  0  0  0  0  0
    4.6381    0.5569    0.0000 C   0  0  0  0  0  0  0  0  0  0  0  0
    6.3981   -1.4777    0.0000 C   0  0  0  0  0  0  0  0  0  0  0  0
   10.7282    0.0223    0.0000 C   0  0  0  0  0  0  0  0  0  0  0  0
    8.9962    3.0223    0.0000 C   0  0  0  0  0  0  0  0  0  0  0  0
    3.7320    0.0431    0.0000 C   0  0  0  0  0  0  0  0  0  0  0  0
    3.7320   -0.9985    0.0000 C   0  0  0  0  0  0  0  0  0  0  0  0
   11.5942    1.5223    0.0000 C   0  0  0  0  0  0  0  0  0  0  0  0
   12.4602    2.0223    0.0000 C   0  0  0  0  0  0  0  0  0  0  0  0
    3.7895   -3.0223    0.0000 C   0  0  0  0  0  0  0  0  0  0  0  0
    2.0000    0.0498    0.0000 C   0  0  0  0  0  0  0  0  0  0  0  0
    8.9962   -0.5977    0.0000 H   0  0  0  0  0  0  0  0  0  0  0  0
    7.5932    1.8323    0.0000 H   0  0  0  0  0  0  0  0  0  0  0  0
    6.3981    1.1423    0.0000 H   0  0  0  0  0  0  0  0  0  0  0  0
    4.6453    1.1769    0.0000 H   0  0  0  0  0  0  0  0  0  0  0  0
   10.4182   -0.5146    0.0000 H   0  0  0  0  0  0  0  0  0  0  0  0
   11.2651   -0.2877    0.0000 H   0  0  0  0  0  0  0  0  0  0  0  0
   11.0382    0.5592    0.0000 H   0  0  0  0  0  0  0  0  0  0  0  0
    9.6162    3.0223    0.0000 H   0  0  0  0  0  0  0  0  0  0  0  0
    8.9962    3.6423    0.0000 H   0  0  0  0  0  0  0  0  0  0  0  0
    8.3762    3.0223    0.0000 H   0  0  0  0  0  0  0  0  0  0  0  0
    3.1963   -1.3106    0.0000 H   0  0  0  0  0  0  0  0  0  0  0  0
   11.1957    1.0473    0.0000 H   0  0  0  0  0  0  0  0  0  0  0  0
   11.9928    1.0473    0.0000 H   0  0  0  0  0  0  0  0  0  0  0  0
   12.8588    2.4972    0.0000 H   0  0  0  0  0  0  0  0  0  0  0  0
   12.0617    2.4972    0.0000 H   0  0  0  0  0  0  0  0  0  0  0  0
    3.4733   -2.4890    0.0000 H   0  0  0  0  0  0  0  0  0  0  0  0
    3.2562   -3.3385    0.0000 H   0  0  0  0  0  0  0  0  0  0  0  0
    4.1057   -3.5556    0.0000 H   0  0  0  0  0  0  0  0  0  0  0  0
    1.6921    0.5879    0.0000 H   0  0  0  0  0  0  0  0  0  0  0  0
    1.4619   -0.2581    0.0000 H   0  0  0  0  0  0  0  0  0  0  0  0
    2.3079   -0.4883    0.0000 H   0  0  0  0  0  0  0  0  0  0  0  0
   13.8632    1.8323    0.0000 H   0  0  0  0  0  0  0  0  0  0  0  0
  1 13  1  0  0  0  0
  1 24  1  0  0  0  0
  2 17  1  0  0  0  0
  2 26  1  0  0  0  0
  3 22  1  0  0  0  0
  3 27  1  0  0  0  0
  4 19  2  0  0  0  0
  5 25  1  0  0  0  0
  5 49  1  0  0  0  0
  6  9  1  0  0  0  0
  6 10  1  0  0  0  0
  6 30  1  0  0  0  0
  7  9  2  0  0  0  0
  7 19  1  0  0  0  0
  8  9  1  0  0  0  0
  8 15  2  0  0  0  0
  8 16  1  0  0  0  0
 10 14  2  0  0  0  0
 10 18  1  0  0  0  0
 11 13  2  0  0  0  0
 11 15  1  0  0  0  0
 11 20  1  0  0  0  0
 12 13  1  0  0  0  0
 12 16  2  0  0  0  0
 12 21  1  0  0  0  0
 14 17  1  0  0  0  0
 14 19  1  0  0  0  0
 15 28  1  0  0  0  0
 16 29  1  0  0  0  0
 17 23  2  0  0  0  0
 18 22  2  0  0  0  0
 18 31  1  0  0  0  0
 20 32  1  0  0  0  0
 20 33  1  0  0  0  0
 20 34  1  0  0  0  0
 21 35  1  0  0  0  0
 21 36  1  0  0  0  0
 21 37  1  0  0  0  0
 22 23  1  0  0  0  0
 23 38  1  0  0  0  0
 24 25  1  0  0  0  0
 24 39  1  0  0  0  0
 24 40  1  0  0  0  0
 25 41  1  0  0  0  0
 25 42  1  0  0  0  0
 26 43  1  0  0  0  0
 26 44  1  0  0  0  0
 26 45  1  0  0  0  0
 27 46  1  0  0  0  0
 27 47  1  0  0  0  0
 27 48  1  0  0  0  0
M  END
> <PUBCHEM_COMPOUND_CID>
24871506

> <PUBCHEM_COMPOUND_CANONICALIZED>
1

> <PUBCHEM_CACTVS_COMPLEXITY>
543

> <PUBCHEM_CACTVS_HBOND_ACCEPTOR>
5

> <PUBCHEM_CACTVS_HBOND_DONOR>
2

> <PUBCHEM_CACTVS_ROTATABLE_BOND>
6

> <PUBCHEM_CACTVS_SUBSKEYS>
AAADceB7OAAAAAAAAAAAAAAAAAAAAAAAAAAwYIAAAAAAAACBQAAAHgAQCAAADAyhmAIzxoLABgCoAidydACCCAElIgABiAEmbNgNN77E/ZuGOejn8B3L6UeY/G/OIAACCgAKAABAAAQUABQAAAAAAAAAAA==

> <PUBCHEM_IUPAC_OPENEYE_NAME>
2-[4-(2-hydroxyethoxy)-3,5-dimethyl-phenyl]-5,7-dimethoxy-1H-quinazolin-4-one

> <PUBCHEM_IUPAC_CAS_NAME>
2-[4-(2-hydroxyethoxy)-3,5-dimethylphenyl]-5,7-dimethoxy-1H-quinazolin-4-one

> <PUBCHEM_IUPAC_NAME_MARKUP>
2-[4-(2-hydroxyethoxy)-3,5-dimethylphenyl]-5,7-dimethoxy-1<I>H</I>-quinazolin-4-one

> <PUBCHEM_IUPAC_NAME>
2-[4-(2-hydroxyethoxy)-3,5-dimethylphenyl]-5,7-dimethoxy-1H-quinazolin-4-one

> <PUBCHEM_IUPAC_SYSTEMATIC_NAME>
2-[4-(2-hydroxyethyloxy)-3,5-dimethyl-phenyl]-5,7-dimethoxy-1H-quinazolin-4-one

> <PUBCHEM_IUPAC_TRADITIONAL_NAME>
2-[4-(2-hydroxyethoxy)-3,5-dimethyl-phenyl]-5,7-dimethoxy-1H-quinazolin-4-one

> <PUBCHEM_IUPAC_INCHI>
InChI=1S/C20H22N2O5/c1-11-7-13(8-12(2)18(11)27-6-5-23)19-21-15-9-14(25-3)10-16(26-4)17(15)20(24)22-19/h7-10,23H,5-6H2,1-4H3,(H,21,22,24)

> <PUBCHEM_IUPAC_INCHIKEY>
NETXMUIMUZJUTB-UHFFFAOYSA-N

> <PUBCHEM_XLOGP3_AA>
2.3

> <PUBCHEM_EXACT_MASS>
370.152872

> <PUBCHEM_MOLECULAR_FORMULA>
C20H22N2O5

> <PUBCHEM_MOLECULAR_WEIGHT>
370.4

> <PUBCHEM_OPENEYE_CAN_SMILES>
CC1=CC(=CC(=C1OCCO)C)C2=NC(=O)C3=C(N2)C=C(C=C3OC)OC

> <PUBCHEM_OPENEYE_ISO_SMILES>
CC1=CC(=CC(=C1OCCO)C)C2=NC(=O)C3=C(N2)C=C(C=C3OC)OC

> <PUBCHEM_CACTVS_TPSA>
89.4

> <PUBCHEM_MONOISOTOPIC_WEIGHT>
370.152872

> <PUBCHEM_TOTAL_CHARGE>
0

> <PUBCHEM_HEAVY_ATOM_COUNT>
27

> <PUBCHEM_ATOM_DEF_STEREO_COUNT>
0

> <PUBCHEM_ATOM_UDEF_STEREO_COUNT>
0

> <PUBCHEM_BOND_DEF_STEREO_COUNT>
0

> <PUBCHEM_BOND_UDEF_STEREO_COUNT>
0

> <PUBCHEM_ISOTOPIC_ATOM_COUNT>
0

> <PUBCHEM_COMPONENT_COUNT>
1

> <PUBCHEM_CACTVS_TAUTO_COUNT>
-1

> <PUBCHEM_COORDINATE_TYPE>
1
5
255

> <PUBCHEM_BONDANNOTATIONS>
10  14  8
10  18  8
11  13  8
11  15  8
12  13  8
12  16  8
14  17  8
14  19  8
17  23  8
18  22  8
22  23  8
6  10  8
6  9  8
7  19  8
7  9  8
8  15  8
8  16  8

$$$$
71299339
  -OEChem-02182015172D

 50 53  0     0  0  0  0  0  0999 V2000
    7.0468   -3.0670    0.0000 S   0  0  0  0  0  0  0  0  0  0  0  0
    2.0000   -0.7306    0.0000 S   0  0  0  0  0  0  0  0  0  0  0  0
    7.9128    5.4330    0.0000 F   0  0  0  0  0  0  0  0  0  0  0  0
    8.9128    4.4330    0.0000 F   0  0  0  0  0  0  0  0  0  0  0  0
    6.9128    4.4330    0.0000 F   0  0  0  0  0  0  0  0  0  0  0  0
    6.5468   -3.9330    0.0000 O   0  0  0  0  0  0  0  0  0  0  0  0
    7.5468   -2.2010    0.0000 O   0  0  0  0  0  0  0  0  0  0  0  0
    7.0468   -0.0670    0.0000 O   0  0  0  0  0  0  0  0  0  0  0  0
    7.9128   -3.5670    0.0000 N   0  0  0  0  0  0  0  0  0  0  0  0
    5.3147   -0.0670    0.0000 N   0  0  0  0  0  0  0  0  0  0  0  0
    6.1808    1.4330    0.0000 N   0  0  0  0  0  0  0  0  0  0  0  0
    7.9128   -4.5670    0.0000 C   0  0  0  0  0  0  0  0  0  0  0  0
    7.4128   -5.4330    0.0000 C   0  0  0  0  0  0  0  0  0  0  0  0
    8.4128   -5.4330    0.0000 C   0  0  0  0  0  0  0  0  0  0  0  0
    6.1808   -2.5670    0.0000 C   0  0  0  0  0  0  0  0  0  0  0  0
    6.1808   -1.5670    0.0000 C   0  0  0  0  0  0  0  0  0  0  0  0
    5.3147   -3.0670    0.0000 C   0  0  0  0  0  0  0  0  0  0  0  0
    5.3147   -1.0670    0.0000 C   0  0  0  0  0  0  0  0  0  0  0  0
    4.4487   -1.5670    0.0000 C   0  0  0  0  0  0  0  0  0  0  0  0
    4.4487   -2.5670    0.0000 C   0  0  0  0  0  0  0  0  0  0  0  0
    3.5827   -1.0670    0.0000 C   0  0  0  0  0  0  0  0  0  0  0  0
    3.4782   -0.0725    0.0000 C   0  0  0  0  0  0  0  0  0  0  0  0
    6.1808    0.4330    0.0000 C   0  0  0  0  0  0  0  0  0  0  0  0
    2.6691   -1.4737    0.0000 C   0  0  0  0  0  0  0  0  0  0  0  0
    2.5000    0.1354    0.0000 C   0  0  0  0  0  0  0  0  0  0  0  0
    7.0468    1.9330    0.0000 C   0  0  0  0  0  0  0  0  0  0  0  0
    7.0468    2.9330    0.0000 C   0  0  0  0  0  0  0  0  0  0  0  0
    7.9128    3.4330    0.0000 C   0  0  0  0  0  0  0  0  0  0  0  0
    7.9128    1.4330    0.0000 C   0  0  0  0  0  0  0  0  0  0  0  0
    8.7788    2.9330    0.0000 C   0  0  0  0  0  0  0  0  0  0  0  0
    8.7788    1.9330    0.0000 C   0  0  0  0  0  0  0  0  0  0  0  0
    7.9128    4.4330    0.0000 C   0  0  0  0  0  0  0  0  0  0  0  0
    8.5117   -4.4065    0.0000 H   0  0  0  0  0  0  0  0  0  0  0  0
    6.8302   -5.2210    0.0000 H   0  0  0  0  0  0  0  0  0  0  0  0
    7.3051   -6.0436    0.0000 H   0  0  0  0  0  0  0  0  0  0  0  0
    8.5205   -6.0436    0.0000 H   0  0  0  0  0  0  0  0  0  0  0  0
    8.9954   -5.2210    0.0000 H   0  0  0  0  0  0  0  0  0  0  0  0
    8.4497   -3.2570    0.0000 H   0  0  0  0  0  0  0  0  0  0  0  0
    6.7177   -1.2570    0.0000 H   0  0  0  0  0  0  0  0  0  0  0  0
    5.3147   -3.6870    0.0000 H   0  0  0  0  0  0  0  0  0  0  0  0
    3.9118   -2.8770    0.0000 H   0  0  0  0  0  0  0  0  0  0  0  0
    4.7778    0.2430    0.0000 H   0  0  0  0  0  0  0  0  0  0  0  0
    3.9389    0.3424    0.0000 H   0  0  0  0  0  0  0  0  0  0  0  0
    2.5402   -2.0802    0.0000 H   0  0  0  0  0  0  0  0  0  0  0  0
    5.6438    1.7430    0.0000 H   0  0  0  0  0  0  0  0  0  0  0  0
    2.2478    0.7018    0.0000 H   0  0  0  0  0  0  0  0  0  0  0  0
    6.5098    3.2430    0.0000 H   0  0  0  0  0  0  0  0  0  0  0  0
    7.9128    0.8130    0.0000 H   0  0  0  0  0  0  0  0  0  0  0  0
    9.3158    3.2430    0.0000 H   0  0  0  0  0  0  0  0  0  0  0  0
    9.3158    1.6230    0.0000 H   0  0  0  0  0  0  0  0  0  0  0  0
  1  6  2  0  0  0  0
  1  7  2  0  0  0  0
  1  9  1  0  0  0  0
  1 15  1  0  0  0  0
  2 24  1  0  0  0  0
  2 25  1  0  0  0  0
  3 32  1  0  0  0  0
  4 32  1  0  0  0  0
  5 32  1  0  0  0  0
  8 23  2  0  0  0  0
  9 12  1  0  0  0  0
  9 38  1  0  0  0  0
 10 18  1  0  0  0  0
 10 23  1  0  0  0  0
 10 42  1  0  0  0  0
 11 23  1  0  0  0  0
 11 26  1  0  0  0  0
 11 45  1  0  0  0  0
 12 13  1  0  0  0  0
 12 14  1  0  0  0  0
 12 33  1  0  0  0  0
 13 14  1  0  0  0  0
 13 34  1  0  0  0  0
 13 35  1  0  0  0  0
 14 36  1  0  0  0  0
 14 37  1  0  0  0  0
 15 16  2  0  0  0  0
 15 17  1  0  0  0  0
 16 18  1  0  0  0  0
 16 39  1  0  0  0  0
 17 20  2  0  0  0  0
 17 40  1  0  0  0  0
 18 19  2  0  0  0  0
 19 20  1  0  0  0  0
 19 21  1  0  0  0  0
 20 41  1  0  0  0  0
 21 22  1  0  0  0  0
 21 24  2  0  0  0  0
 22 25  2  0  0  0  0
 22 43  1  0  0  0  0
 24 44  1  0  0  0  0
 25 46  1  0  0  0  0
 26 27  1  0  0  0  0
 26 29  2  0  0  0  0
 27 28  2  0  0  0  0
 27 47  1  0  0  0  0
 28 30  1  0  0  0  0
 28 32  1  0  0  0  0
 29 31  1  0  0  0  0
 29 48  1  0  0  0  0
 30 31  2  0  0  0  0
 30 49  1  0  0  0  0
 31 50  1  0  0  0  0
M  END
> <PUBCHEM_COMPOUND_CID>
71299339

> <PUBCHEM_COMPOUND_CANONICALIZED>
1

> <PUBCHEM_CACTVS_COMPLEXITY>
771

> <PUBCHEM_CACTVS_HBOND_ACCEPTOR>
8

> <PUBCHEM_CACTVS_HBOND_DONOR>
3

> <PUBCHEM_CACTVS_ROTATABLE_BOND>
6

> <PUBCHEM_CACTVS_SUBSKEYS>
AAADceB7MYBgAAAAAAAAAAAAGAAAASAAAAAwYAAAAAAAAAAB0AAAHwQQQAAADCjFWBSxwYLAAAqMAiRCUHDDAJAhChBIiJgAZIiIICLgkZGEIAxolAJoyCcQgMAOkAAAQCACAAAgAACAQAQAAAAAAAAAAA==

> <PUBCHEM_IUPAC_OPENEYE_NAME>
1-[5-(cyclopropylsulfamoyl)-2-(3-thienyl)phenyl]-3-[3-(trifluoromethyl)phenyl]urea

> <PUBCHEM_IUPAC_CAS_NAME>
1-[5-(cyclopropylsulfamoyl)-2-(3-thiophenyl)phenyl]-3-[3-(trifluoromethyl)phenyl]urea

> <PUBCHEM_IUPAC_NAME_MARKUP>
1-[5-(cyclopropylsulfamoyl)-2-thiophen-3-ylphenyl]-3-[3-(trifluoromethyl)phenyl]urea

> <PUBCHEM_IUPAC_NAME>
1-[5-(cyclopropylsulfamoyl)-2-thiophen-3-ylphenyl]-3-[3-(trifluoromethyl)phenyl]urea

> <PUBCHEM_IUPAC_SYSTEMATIC_NAME>
1-[5-(cyclopropylsulfamoyl)-2-thiophen-3-yl-phenyl]-3-[3-(trifluoromethyl)phenyl]urea

> <PUBCHEM_IUPAC_TRADITIONAL_NAME>
1-[5-(cyclopropylsulfamoyl)-2-(3-thienyl)phenyl]-3-[3-(trifluoromethyl)phenyl]urea

> <PUBCHEM_IUPAC_INCHI>
InChI=1S/C21H18F3N3O3S2/c22-21(23,24)14-2-1-3-16(10-14)25-20(28)26-19-11-17(32(29,30)27-15-4-5-15)6-7-18(19)13-8-9-31-12-13/h1-3,6-12,15,27H,4-5H2,(H2,25,26,28)

> <PUBCHEM_IUPAC_INCHIKEY>
CCAWRGNYALGPQH-UHFFFAOYSA-N

> <PUBCHEM_XLOGP3_AA>
4.2

> <PUBCHEM_EXACT_MASS>
481.074168

> <PUBCHEM_MOLECULAR_FORMULA>
C21H18F3N3O3S2

> <PUBCHEM_MOLECULAR_WEIGHT>
481.5

> <PUBCHEM_OPENEYE_CAN_SMILES>
C1CC1NS(=O)(=O)C2=CC(=C(C=C2)C3=CSC=C3)NC(=O)NC4=CC=CC(=C4)C(F)(F)F

> <PUBCHEM_OPENEYE_ISO_SMILES>
C1CC1NS(=O)(=O)C2=CC(=C(C=C2)C3=CSC=C3)NC(=O)NC4=CC=CC(=C4)C(F)(F)F

> <PUBCHEM_CACTVS_TPSA>
124

> <PUBCHEM_MONOISOTOPIC_WEIGHT>
481.074168

> <PUBCHEM_TOTAL_CHARGE>
0

> <PUBCHEM_HEAVY_ATOM_COUNT>
32

> <PUBCHEM_ATOM_DEF_STEREO_COUNT>
0

> <PUBCHEM_ATOM_UDEF_STEREO_COUNT>
0

> <PUBCHEM_BOND_DEF_STEREO_COUNT>
0

> <PUBCHEM_BOND_UDEF_STEREO_COUNT>
0

> <PUBCHEM_ISOTOPIC_ATOM_COUNT>
0

> <PUBCHEM_COMPONENT_COUNT>
1

> <PUBCHEM_CACTVS_TAUTO_COUNT>
-1

> <PUBCHEM_COORDINATE_TYPE>
1
5
255

> <PUBCHEM_BONDANNOTATIONS>
15  16  8
15  17  8
16  18  8
17  20  8
18  19  8
19  20  8
2  24  8
2  25  8
21  22  8
21  24  8
22  25  8
26  27  8
26  29  8
27  28  8
28  30  8
29  31  8
30  31  8

$$$$
52913813
  -OEChem-02182015172D

 58 61  0     1  0  0  0  0  0999 V2000
    2.8660   -3.7673    0.0000 F   0  0  0  0  0  0  0  0  0  0  0  0
    6.3301   -3.7673    0.0000 F   0  0  0  0  0  0  0  0  0  0  0  0
    7.2241    0.6980    0.0000 O   0  0  0  0  0  0  0  0  0  0  0  0
   10.7224   -0.2981    0.0000 O   0  0  0  0  0  0  0  0  0  0  0  0
    7.2125    3.7673    0.0000 O   0  0  0  0  0  0  0  0  0  0  0  0
    3.7320    3.7327    0.0000 O   0  0  0  0  0  0  0  0  0  0  0  0
    8.9942    0.7086    0.0000 N   0  0  0  0  0  0  0  0  0  0  0  0
    4.5981   -0.7673    0.0000 N   0  0  0  0  0  0  0  0  0  0  0  0
    2.8660    2.2327    0.0000 N   0  0  0  0  0  0  0  0  0  0  0  0
    5.4641    0.7327    0.0000 C   0  0  0  0  0  0  0  0  0  0  0  0
    8.9904   -0.2914    0.0000 C   0  0  0  0  0  0  0  0  0  0  0  0
    9.8622    1.2052    0.0000 C   0  0  0  0  0  0  0  0  0  0  0  0
    5.4641   -0.2673    0.0000 C   0  0  1  0  0  0  0  0  0  0  0  0
    6.3301    1.2327    0.0000 C   0  0  0  0  0  0  0  0  0  0  0  0
    8.1301    1.2119    0.0000 C   0  0  0  0  0  0  0  0  0  0  0  0
    6.3301    2.2327    0.0000 C   0  0  0  0  0  0  0  0  0  0  0  0
    9.8545   -0.7948    0.0000 C   0  0  0  0  0  0  0  0  0  0  0  0
   10.7263    0.7019    0.0000 C   0  0  0  0  0  0  0  0  0  0  0  0
    4.5981    1.2327    0.0000 C   0  0  0  0  0  0  0  0  0  0  0  0
    8.1301    2.2535    0.0000 C   0  0  0  0  0  0  0  0  0  0  0  0
    4.5981    2.2327    0.0000 C   0  0  0  0  0  0  0  0  0  0  0  0
    7.2241    2.7674    0.0000 C   0  0  0  0  0  0  0  0  0  0  0  0
    5.4641    2.7327    0.0000 C   0  0  0  0  0  0  0  0  0  0  0  0
    6.3301   -0.7673    0.0000 C   0  0  0  0  0  0  0  0  0  0  0  0
    3.7320    2.7327    0.0000 C   0  0  0  0  0  0  0  0  0  0  0  0
    4.5981   -1.7673    0.0000 C   0  0  0  0  0  0  0  0  0  0  0  0
    5.4641   -2.2673    0.0000 C   0  0  0  0  0  0  0  0  0  0  0  0
    3.7320   -2.2673    0.0000 C   0  0  0  0  0  0  0  0  0  0  0  0
    2.0000    2.7327    0.0000 C   0  0  0  0  0  0  0  0  0  0  0  0
    2.8660    1.2327    0.0000 C   0  0  0  0  0  0  0  0  0  0  0  0
    3.7320   -3.2673    0.0000 C   0  0  0  0  0  0  0  0  0  0  0  0
    5.4641   -3.2673    0.0000 C   0  0  0  0  0  0  0  0  0  0  0  0
    4.5981   -3.7673    0.0000 C   0  0  0  0  0  0  0  0  0  0  0  0
    8.3802   -0.1814    0.0000 H   0  0  0  0  0  0  0  0  0  0  0  0
    8.7761   -0.8732    0.0000 H   0  0  0  0  0  0  0  0  0  0  0  0
   10.2625    1.6786    0.0000 H   0  0  0  0  0  0  0  0  0  0  0  0
    9.4655    1.6817    0.0000 H   0  0  0  0  0  0  0  0  0  0  0  0
    5.4641   -0.8873    0.0000 H   0  0  0  0  0  0  0  0  0  0  0  0
    9.4541   -1.2682    0.0000 H   0  0  0  0  0  0  0  0  0  0  0  0
   10.2512   -1.2712    0.0000 H   0  0  0  0  0  0  0  0  0  0  0  0
   11.3364    0.5919    0.0000 H   0  0  0  0  0  0  0  0  0  0  0  0
   10.9406    1.2837    0.0000 H   0  0  0  0  0  0  0  0  0  0  0  0
    4.0611    0.9227    0.0000 H   0  0  0  0  0  0  0  0  0  0  0  0
    8.6659    2.5656    0.0000 H   0  0  0  0  0  0  0  0  0  0  0  0
    5.4641    3.3527    0.0000 H   0  0  0  0  0  0  0  0  0  0  0  0
    6.0201   -1.3042    0.0000 H   0  0  0  0  0  0  0  0  0  0  0  0
    6.8671   -1.0773    0.0000 H   0  0  0  0  0  0  0  0  0  0  0  0
    6.6401   -0.2304    0.0000 H   0  0  0  0  0  0  0  0  0  0  0  0
    4.0611   -0.4573    0.0000 H   0  0  0  0  0  0  0  0  0  0  0  0
    6.0010   -1.9573    0.0000 H   0  0  0  0  0  0  0  0  0  0  0  0
    3.1951   -1.9573    0.0000 H   0  0  0  0  0  0  0  0  0  0  0  0
    2.3100    3.2696    0.0000 H   0  0  0  0  0  0  0  0  0  0  0  0
    1.4631    3.0427    0.0000 H   0  0  0  0  0  0  0  0  0  0  0  0
    1.6900    2.1958    0.0000 H   0  0  0  0  0  0  0  0  0  0  0  0
    2.2460    1.2327    0.0000 H   0  0  0  0  0  0  0  0  0  0  0  0
    2.8660    0.6127    0.0000 H   0  0  0  0  0  0  0  0  0  0  0  0
    3.4860    1.2327    0.0000 H   0  0  0  0  0  0  0  0  0  0  0  0
    4.5981   -4.3873    0.0000 H   0  0  0  0  0  0  0  0  0  0  0  0
  1 31  1  0  0  0  0
  2 32  1  0  0  0  0
  3 14  1  0  0  0  0
  3 15  1  0  0  0  0
  4 17  1  0  0  0  0
  4 18  1  0  0  0  0
  5 22  2  0  0  0  0
  6 25  2  0  0  0  0
  7 11  1  0  0  0  0
  7 12  1  0  0  0  0
  7 15  1  0  0  0  0
 13  8  1  1  0  0  0
  8 26  1  0  0  0  0
  8 49  1  0  0  0  0
  9 25  1  0  0  0  0
  9 29  1  0  0  0  0
  9 30  1  0  0  0  0
 10 13  1  0  0  0  0
 10 14  1  0  0  0  0
 10 19  2  0  0  0  0
 11 17  1  0  0  0  0
 11 34  1  0  0  0  0
 11 35  1  0  0  0  0
 12 18  1  0  0  0  0
 12 36  1  0  0  0  0
 12 37  1  0  0  0  0
 13 24  1  0  0  0  0
 13 38  1  0  0  0  0
 14 16  2  0  0  0  0
 15 20  2  0  0  0  0
 16 22  1  0  0  0  0
 16 23  1  0  0  0  0
 17 39  1  0  0  0  0
 17 40  1  0  0  0  0
 18 41  1  0  0  0  0
 18 42  1  0  0  0  0
 19 21  1  0  0  0  0
 19 43  1  0  0  0  0
 20 22  1  0  0  0  0
 20 44  1  0  0  0  0
 21 23  2  0  0  0  0
 21 25  1  0  0  0  0
 23 45  1  0  0  0  0
 24 46  1  0  0  0  0
 24 47  1  0  0  0  0
 24 48  1  0  0  0  0
 26 27  2  0  0  0  0
 26 28  1  0  0  0  0
 27 32  1  0  0  0  0
 27 50  1  0  0  0  0
 28 31  2  0  0  0  0
 28 51  1  0  0  0  0
 29 52  1  0  0  0  0
 29 53  1  0  0  0  0
 29 54  1  0  0  0  0
 30 55  1  0  0  0  0
 30 56  1  0  0  0  0
 30 57  1  0  0  0  0
 31 33  1  0  0  0  0
 32 33  2  0  0  0  0
 33 58  1  0  0  0  0
M  END
> <PUBCHEM_COMPOUND_CID>
52913813

> <PUBCHEM_COMPOUND_CANONICALIZED>
1

> <PUBCHEM_CACTVS_COMPLEXITY>
748

> <PUBCHEM_CACTVS_HBOND_ACCEPTOR>
8

> <PUBCHEM_CACTVS_HBOND_DONOR>
1

> <PUBCHEM_CACTVS_ROTATABLE_BOND>
5

> <PUBCHEM_CACTVS_SUBSKEYS>
AAADceB7OYAAAAAAAAAAAAAAAAAAAAAAAAA8YIEAAAAAAACBQAAAHwAQAAAADCzhmA4yxoPABACIAqVSUACCCAAlIgAAiIEMbMgOJjbEtZuPMWhm8hHY6ceY3+L+IAACAAAIAABAAAQAABAAAAAAAAAAAA==

> <PUBCHEM_IUPAC_OPENEYE_NAME>
8-[(1R)-1-(3,5-difluoroanilino)ethyl]-N,N-dimethyl-2-morpholino-4-oxo-chromene-6-carboxamide

> <PUBCHEM_IUPAC_CAS_NAME>
8-[(1R)-1-(3,5-difluoroanilino)ethyl]-N,N-dimethyl-2-(4-morpholinyl)-4-oxo-1-benzopyran-6-carboxamide

> <PUBCHEM_IUPAC_NAME_MARKUP>
8-[(1<I>R</I>)-1-(3,5-difluoroanilino)ethyl]-<I>N</I>,<I>N</I>-dimethyl-2-morpholin-4-yl-4-oxochromene-6-carboxamide

> <PUBCHEM_IUPAC_NAME>
8-[(1R)-1-(3,5-difluoroanilino)ethyl]-N,N-dimethyl-2-morpholin-4-yl-4-oxochromene-6-carboxamide

> <PUBCHEM_IUPAC_SYSTEMATIC_NAME>
8-[(1R)-1-[[3,5-bis(fluoranyl)phenyl]amino]ethyl]-N,N-dimethyl-2-morpholin-4-yl-4-oxidanylidene-chromene-6-carboxamide

> <PUBCHEM_IUPAC_TRADITIONAL_NAME>
8-[(1R)-1-(3,5-difluoroanilino)ethyl]-4-keto-N,N-dimethyl-2-morpholino-chromene-6-carboxamide

> <PUBCHEM_IUPAC_INCHI>
InChI=1S/C24H25F2N3O4/c1-14(27-18-11-16(25)10-17(26)12-18)19-8-15(24(31)28(2)3)9-20-21(30)13-22(33-23(19)20)29-4-6-32-7-5-29/h8-14,27H,4-7H2,1-3H3/t14-/m1/s1

> <PUBCHEM_IUPAC_INCHIKEY>
LMJFJIDLEAWOQJ-CQSZACIVSA-N

> <PUBCHEM_XLOGP3_AA>
3

> <PUBCHEM_EXACT_MASS>
457.181313

> <PUBCHEM_MOLECULAR_FORMULA>
C24H25F2N3O4

> <PUBCHEM_MOLECULAR_WEIGHT>
457.5

> <PUBCHEM_OPENEYE_CAN_SMILES>
CC(C1=CC(=CC2=C1OC(=CC2=O)N3CCOCC3)C(=O)N(C)C)NC4=CC(=CC(=C4)F)F

> <PUBCHEM_OPENEYE_ISO_SMILES>
C[C@H](C1=CC(=CC2=C1OC(=CC2=O)N3CCOCC3)C(=O)N(C)C)NC4=CC(=CC(=C4)F)F

> <PUBCHEM_CACTVS_TPSA>
71.1

> <PUBCHEM_MONOISOTOPIC_WEIGHT>
457.181313

> <PUBCHEM_TOTAL_CHARGE>
0

> <PUBCHEM_HEAVY_ATOM_COUNT>
33

> <PUBCHEM_ATOM_DEF_STEREO_COUNT>
1

> <PUBCHEM_ATOM_UDEF_STEREO_COUNT>
0

> <PUBCHEM_BOND_DEF_STEREO_COUNT>
0

> <PUBCHEM_BOND_UDEF_STEREO_COUNT>
0

> <PUBCHEM_ISOTOPIC_ATOM_COUNT>
0

> <PUBCHEM_COMPONENT_COUNT>
1

> <PUBCHEM_CACTVS_TAUTO_COUNT>
-1

> <PUBCHEM_COORDINATE_TYPE>
1
5
255

> <PUBCHEM_BONDANNOTATIONS>
10  14  8
10  19  8
14  16  8
15  20  8
16  22  8
16  23  8
19  21  8
20  22  8
21  23  8
26  27  8
26  28  8
27  32  8
28  31  8
3  14  8
3  15  8
31  33  8
32  33  8
13  8  5

$$$$
10184653
  -OEChem-02182015172D

 59 62  0     1  0  0  0  0  0999 V2000
   11.5424   -1.0941    0.0000 Cl  0  0  0  0  0  0  0  0  0  0  0  0
   11.5193   -3.0939    0.0000 F   0  0  0  0  0  0  0  0  0  0  0  0
    4.0981    4.5194    0.0000 O   0  0  0  0  0  0  0  0  0  0  0  0
    4.5981    1.9806    0.0000 O   0  0  0  0  0  0  0  0  0  0  0  0
    5.4641   -1.5194    0.0000 O   0  0  0  0  0  0  0  0  0  0  0  0
    4.5981   -0.0194    0.0000 N   0  0  0  0  0  0  0  0  0  0  0  0
    8.0901    2.0152    0.0000 N   0  0  0  0  0  0  0  0  0  0  0  0
    8.0785   -1.0540    0.0000 N   0  0  0  0  0  0  0  0  0  0  0  0
    8.9962    0.4598    0.0000 N   0  0  0  0  0  0  0  0  0  0  0  0
    2.8660   -4.0194    0.0000 N   0  0  0  0  0  0  0  0  0  0  0  0
    4.5981    2.9806    0.0000 C   0  0  1  0  0  0  0  0  0  0  0  0
    5.4071    3.5684    0.0000 C   0  0  0  0  0  0  0  0  0  0  0  0
    3.7891    3.5684    0.0000 C   0  0  0  0  0  0  0  0  0  0  0  0
    5.0981    4.5194    0.0000 C   0  0  0  0  0  0  0  0  0  0  0  0
    5.4641    1.4806    0.0000 C   0  0  0  0  0  0  0  0  0  0  0  0
    5.4641    0.4806    0.0000 C   0  0  0  0  0  0  0  0  0  0  0  0
    6.3301    1.9806    0.0000 C   0  0  0  0  0  0  0  0  0  0  0  0
    7.1962    0.4806    0.0000 C   0  0  0  0  0  0  0  0  0  0  0  0
    7.1962    1.4806    0.0000 C   0  0  0  0  0  0  0  0  0  0  0  0
    6.3301   -0.0194    0.0000 C   0  0  0  0  0  0  0  0  0  0  0  0
    8.0901   -0.0541    0.0000 C   0  0  0  0  0  0  0  0  0  0  0  0
    4.5981   -1.0194    0.0000 C   0  0  0  0  0  0  0  0  0  0  0  0
    8.9962    1.5014    0.0000 C   0  0  0  0  0  0  0  0  0  0  0  0
    8.9387   -1.5640    0.0000 C   0  0  0  0  0  0  0  0  0  0  0  0
    3.7320   -1.5194    0.0000 C   0  0  0  0  0  0  0  0  0  0  0  0
    2.8660   -3.0194    0.0000 C   0  0  0  0  0  0  0  0  0  0  0  0
    3.7320   -2.5194    0.0000 C   0  0  0  0  0  0  0  0  0  0  0  0
    9.8105   -1.0740    0.0000 C   0  0  0  0  0  0  0  0  0  0  0  0
    8.9271   -2.5639    0.0000 C   0  0  0  0  0  0  0  0  0  0  0  0
   10.6707   -1.5840    0.0000 C   0  0  0  0  0  0  0  0  0  0  0  0
    9.7873   -3.0739    0.0000 C   0  0  0  0  0  0  0  0  0  0  0  0
    2.0000   -4.5194    0.0000 C   0  0  0  0  0  0  0  0  0  0  0  0
    3.7320   -4.5194    0.0000 C   0  0  0  0  0  0  0  0  0  0  0  0
   10.6591   -2.5840    0.0000 C   0  0  0  0  0  0  0  0  0  0  0  0
    5.1505    2.6991    0.0000 H   0  0  0  0  0  0  0  0  0  0  0  0
    5.7171    3.0314    0.0000 H   0  0  0  0  0  0  0  0  0  0  0  0
    5.9735    3.8205    0.0000 H   0  0  0  0  0  0  0  0  0  0  0  0
    3.2227    3.8205    0.0000 H   0  0  0  0  0  0  0  0  0  0  0  0
    3.4791    3.0314    0.0000 H   0  0  0  0  0  0  0  0  0  0  0  0
    5.7045    4.6483    0.0000 H   0  0  0  0  0  0  0  0  0  0  0  0
    5.0333    5.1360    0.0000 H   0  0  0  0  0  0  0  0  0  0  0  0
    6.3301    2.6006    0.0000 H   0  0  0  0  0  0  0  0  0  0  0  0
    6.3301   -0.6394    0.0000 H   0  0  0  0  0  0  0  0  0  0  0  0
    4.0611    0.2906    0.0000 H   0  0  0  0  0  0  0  0  0  0  0  0
    7.5380   -1.3578    0.0000 H   0  0  0  0  0  0  0  0  0  0  0  0
    9.5319    1.8135    0.0000 H   0  0  0  0  0  0  0  0  0  0  0  0
    3.1951   -1.2094    0.0000 H   0  0  0  0  0  0  0  0  0  0  0  0
    2.6540   -2.4368    0.0000 H   0  0  0  0  0  0  0  0  0  0  0  0
    2.2554   -3.1271    0.0000 H   0  0  0  0  0  0  0  0  0  0  0  0
    4.2690   -2.8294    0.0000 H   0  0  0  0  0  0  0  0  0  0  0  0
    9.8176   -0.4541    0.0000 H   0  0  0  0  0  0  0  0  0  0  0  0
    8.3867   -2.8677    0.0000 H   0  0  0  0  0  0  0  0  0  0  0  0
    9.7802   -3.6939    0.0000 H   0  0  0  0  0  0  0  0  0  0  0  0
    1.6900   -3.9825    0.0000 H   0  0  0  0  0  0  0  0  0  0  0  0
    1.4631   -4.8294    0.0000 H   0  0  0  0  0  0  0  0  0  0  0  0
    2.3100   -5.0564    0.0000 H   0  0  0  0  0  0  0  0  0  0  0  0
    3.4220   -5.0564    0.0000 H   0  0  0  0  0  0  0  0  0  0  0  0
    4.2690   -4.8294    0.0000 H   0  0  0  0  0  0  0  0  0  0  0  0
    4.0420   -3.9825    0.0000 H   0  0  0  0  0  0  0  0  0  0  0  0
  1 30  1  0  0  0  0
  2 34  1  0  0  0  0
  3 13  1  0  0  0  0
  3 14  1  0  0  0  0
 11  4  1  6  0  0  0
  4 15  1  0  0  0  0
  5 22  2  0  0  0  0
  6 16  1  0  0  0  0
  6 22  1  0  0  0  0
  6 44  1  0  0  0  0
  7 19  1  0  0  0  0
  7 23  2  0  0  0  0
  8 21  1  0  0  0  0
  8 24  1  0  0  0  0
  8 45  1  0  0  0  0
  9 21  2  0  0  0  0
  9 23  1  0  0  0  0
 10 26  1  0  0  0  0
 10 32  1  0  0  0  0
 10 33  1  0  0  0  0
 11 12  1  0  0  0  0
 11 13  1  0  0  0  0
 11 35  1  0  0  0  0
 12 14  1  0  0  0  0
 12 36  1  0  0  0  0
 12 37  1  0  0  0  0
 13 38  1  0  0  0  0
 13 39  1  0  0  0  0
 14 40  1  0  0  0  0
 14 41  1  0  0  0  0
 15 16  2  0  0  0  0
 15 17  1  0  0  0  0
 16 20  1  0  0  0  0
 17 19  2  0  0  0  0
 17 42  1  0  0  0  0
 18 19  1  0  0  0  0
 18 20  2  0  0  0  0
 18 21  1  0  0  0  0
 20 43  1  0  0  0  0
 22 25  1  0  0  0  0
 23 46  1  0  0  0  0
 24 28  2  0  0  0  0
 24 29  1  0  0  0  0
 25 27  2  0  0  0  0
 25 47  1  0  0  0  0
 26 27  1  0  0  0  0
 26 48  1  0  0  0  0
 26 49  1  0  0  0  0
 27 50  1  0  0  0  0
 28 30  1  0  0  0  0
 28 51  1  0  0  0  0
 29 31  2  0  0  0  0
 29 52  1  0  0  0  0
 30 34  2  0  0  0  0
 31 34  1  0  0  0  0
 31 53  1  0  0  0  0
 32 54  1  0  0  0  0
 32 55  1  0  0  0  0
 32 56  1  0  0  0  0
 33 57  1  0  0  0  0
 33 58  1  0  0  0  0
 33 59  1  0  0  0  0
M  END
> <PUBCHEM_COMPOUND_CID>
10184653

> <PUBCHEM_COMPOUND_CANONICALIZED>
1

> <PUBCHEM_CACTVS_COMPLEXITY>
702

> <PUBCHEM_CACTVS_HBOND_ACCEPTOR>
8

> <PUBCHEM_CACTVS_HBOND_DONOR>
2

> <PUBCHEM_CACTVS_ROTATABLE_BOND>
8

> <PUBCHEM_CACTVS_SUBSKEYS>
AAADceB7sQAEAAAAAAAAAAAAAAAAASAAAAA8YIAAAAAAAACx9AAAHwIQAAAADB7hni439vfIFACoAydzdACCiCkxJ6AJ2CA/btiPLuLF+9uHPCjv1Bva6aeQ0AMOIACAQgICEABAAQCEBAQgAAAAAAAAAA==

> <PUBCHEM_IUPAC_OPENEYE_NAME>
(E)-N-[4-(3-chloro-4-fluoro-anilino)-7-[(3S)-tetrahydrofuran-3-yl]oxy-quinazolin-6-yl]-4-(dimethylamino)but-2-enamide

> <PUBCHEM_IUPAC_CAS_NAME>
(E)-N-[4-(3-chloro-4-fluoroanilino)-7-[[(3S)-3-oxolanyl]oxy]-6-quinazolinyl]-4-(dimethylamino)-2-butenamide

> <PUBCHEM_IUPAC_NAME_MARKUP>
(<I>E</I>)-<I>N</I>-[4-(3-chloro-4-fluoroanilino)-7-[(3<I>S</I>)-oxolan-3-yl]oxyquinazolin-6-yl]-4-(dimethylamino)but-2-enamide

> <PUBCHEM_IUPAC_NAME>
(E)-N-[4-(3-chloro-4-fluoroanilino)-7-[(3S)-oxolan-3-yl]oxyquinazolin-6-yl]-4-(dimethylamino)but-2-enamide

> <PUBCHEM_IUPAC_SYSTEMATIC_NAME>
(E)-N-[4-[(3-chloranyl-4-fluoranyl-phenyl)amino]-7-[(3S)-oxolan-3-yl]oxy-quinazolin-6-yl]-4-(dimethylamino)but-2-enamide

> <PUBCHEM_IUPAC_TRADITIONAL_NAME>
(E)-N-[4-(3-chloro-4-fluoro-anilino)-7-[(3S)-tetrahydrofuran-3-yl]oxy-quinazolin-6-yl]-4-(dimethylamino)but-2-enamide

> <PUBCHEM_IUPAC_INCHI>
InChI=1S/C24H25ClFN5O3/c1-31(2)8-3-4-23(32)30-21-11-17-20(12-22(21)34-16-7-9-33-13-16)27-14-28-24(17)29-15-5-6-19(26)18(25)10-15/h3-6,10-12,14,16H,7-9,13H2,1-2H3,(H,30,32)(H,27,28,29)/b4-3+/t16-/m0/s1

> <PUBCHEM_IUPAC_INCHIKEY>
ULXXDDBFHOBEHA-CWDCEQMOSA-N

> <PUBCHEM_XLOGP3_AA>
3.6

> <PUBCHEM_EXACT_MASS>
485.162996

> <PUBCHEM_MOLECULAR_FORMULA>
C24H25ClFN5O3

> <PUBCHEM_MOLECULAR_WEIGHT>
485.9

> <PUBCHEM_OPENEYE_CAN_SMILES>
CN(C)CC=CC(=O)NC1=C(C=C2C(=C1)C(=NC=N2)NC3=CC(=C(C=C3)F)Cl)OC4CCOC4

> <PUBCHEM_OPENEYE_ISO_SMILES>
CN(C)C/C=C/C(=O)NC1=C(C=C2C(=C1)C(=NC=N2)NC3=CC(=C(C=C3)F)Cl)O[C@H]4CCOC4

> <PUBCHEM_CACTVS_TPSA>
88.6

> <PUBCHEM_MONOISOTOPIC_WEIGHT>
485.162996

> <PUBCHEM_TOTAL_CHARGE>
0

> <PUBCHEM_HEAVY_ATOM_COUNT>
34

> <PUBCHEM_ATOM_DEF_STEREO_COUNT>
1

> <PUBCHEM_ATOM_UDEF_STEREO_COUNT>
0

> <PUBCHEM_BOND_DEF_STEREO_COUNT>
1

> <PUBCHEM_BOND_UDEF_STEREO_COUNT>
0

> <PUBCHEM_ISOTOPIC_ATOM_COUNT>
0

> <PUBCHEM_COMPONENT_COUNT>
1

> <PUBCHEM_CACTVS_TAUTO_COUNT>
-1

> <PUBCHEM_COORDINATE_TYPE>
1
5
255

> <PUBCHEM_BONDANNOTATIONS>
15  16  8
15  17  8
16  20  8
17  19  8
18  19  8
18  20  8
18  21  8
24  28  8
24  29  8
28  30  8
29  31  8
30  34  8
31  34  8
11  4  6
7  19  8
7  23  8
9  21  8
9  23  8

$$$$
5330286
  -OEChem-02182015172D

 62 66  0     0  0  0  0  0  0999 V2000
    2.8660   -0.4601    0.0000 O   0  0  0  0  0  0  0  0  0  0  0  0
    2.0000    1.0398    0.0000 O   0  0  0  0  0  0  0  0  0  0  0  0
    4.5981   -0.4601    0.0000 N   0  0  0  0  0  0  0  0  0  0  0  0
    6.3580   -0.4948    0.0000 N   0  0  0  0  0  0  0  0  0  0  0  0
   11.6000    1.5023    0.0000 N   0  0  0  0  0  0  0  0  0  0  0  0
   13.3359    2.4956    0.0000 N   0  0  0  0  0  0  0  0  0  0  0  0
    7.2641    1.0607    0.0000 N   0  0  0  0  0  0  0  0  0  0  0  0
    8.1282   -0.4843    0.0000 N   0  0  0  0  0  0  0  0  0  0  0  0
    9.0000    1.0124    0.0000 N   0  0  0  0  0  0  0  0  0  0  0  0
    4.5981   -1.4602    0.0000 C   0  0  0  0  0  0  0  0  0  0  0  0
    3.7891   -2.0479    0.0000 C   0  0  0  0  0  0  0  0  0  0  0  0
    5.4071   -2.0479    0.0000 C   0  0  0  0  0  0  0  0  0  0  0  0
    4.0981   -2.9990    0.0000 C   0  0  0  0  0  0  0  0  0  0  0  0
    5.0981   -2.9990    0.0000 C   0  0  0  0  0  0  0  0  0  0  0  0
    5.4641    0.0399    0.0000 C   0  0  0  0  0  0  0  0  0  0  0  0
    3.7320    0.0399    0.0000 C   0  0  0  0  0  0  0  0  0  0  0  0
    5.4641    1.0398    0.0000 C   0  0  0  0  0  0  0  0  0  0  0  0
    3.7320    1.0398    0.0000 C   0  0  0  0  0  0  0  0  0  0  0  0
    4.5981    1.5398    0.0000 C   0  0  0  0  0  0  0  0  0  0  0  0
    6.3580    1.5745    0.0000 C   0  0  0  0  0  0  0  0  0  0  0  0
    4.5981    2.5398    0.0000 C   0  0  0  0  0  0  0  0  0  0  0  0
    2.8660    1.5398    0.0000 C   0  0  0  0  0  0  0  0  0  0  0  0
   12.4641    0.9990    0.0000 C   0  0  0  0  0  0  0  0  0  0  0  0
   11.6038    2.5023    0.0000 C   0  0  0  0  0  0  0  0  0  0  0  0
    7.2641    0.0190    0.0000 C   0  0  0  0  0  0  0  0  0  0  0  0
   13.3320    1.4957    0.0000 C   0  0  0  0  0  0  0  0  0  0  0  0
   12.4718    2.9990    0.0000 C   0  0  0  0  0  0  0  0  0  0  0  0
   10.7320    1.0057    0.0000 C   0  0  0  0  0  0  0  0  0  0  0  0
    2.8660    2.5398    0.0000 C   0  0  0  0  0  0  0  0  0  0  0  0
    8.9962    0.0124    0.0000 C   0  0  0  0  0  0  0  0  0  0  0  0
   10.7282    0.0057    0.0000 C   0  0  0  0  0  0  0  0  0  0  0  0
    9.8680    1.5090    0.0000 C   0  0  0  0  0  0  0  0  0  0  0  0
    9.8602   -0.4910    0.0000 C   0  0  0  0  0  0  0  0  0  0  0  0
    5.1505   -1.1787    0.0000 H   0  0  0  0  0  0  0  0  0  0  0  0
    3.4791   -1.5110    0.0000 H   0  0  0  0  0  0  0  0  0  0  0  0
    3.2227   -2.3001    0.0000 H   0  0  0  0  0  0  0  0  0  0  0  0
    5.9735   -2.3001    0.0000 H   0  0  0  0  0  0  0  0  0  0  0  0
    5.7171   -1.5110    0.0000 H   0  0  0  0  0  0  0  0  0  0  0  0
    3.4916   -3.1279    0.0000 H   0  0  0  0  0  0  0  0  0  0  0  0
    4.1629   -3.6156    0.0000 H   0  0  0  0  0  0  0  0  0  0  0  0
    5.0333   -3.6156    0.0000 H   0  0  0  0  0  0  0  0  0  0  0  0
    5.7045   -3.1279    0.0000 H   0  0  0  0  0  0  0  0  0  0  0  0
    6.3509    2.1945    0.0000 H   0  0  0  0  0  0  0  0  0  0  0  0
   12.0637    0.5256    0.0000 H   0  0  0  0  0  0  0  0  0  0  0  0
   12.8608    0.5225    0.0000 H   0  0  0  0  0  0  0  0  0  0  0  0
   11.3940    3.0858    0.0000 H   0  0  0  0  0  0  0  0  0  0  0  0
   10.9929    2.3970    0.0000 H   0  0  0  0  0  0  0  0  0  0  0  0
    5.2181    2.5398    0.0000 H   0  0  0  0  0  0  0  0  0  0  0  0
    4.5981    3.1598    0.0000 H   0  0  0  0  0  0  0  0  0  0  0  0
    3.9781    2.5398    0.0000 H   0  0  0  0  0  0  0  0  0  0  0  0
   13.5418    0.9122    0.0000 H   0  0  0  0  0  0  0  0  0  0  0  0
   13.9430    1.6010    0.0000 H   0  0  0  0  0  0  0  0  0  0  0  0
   12.8721    3.4724    0.0000 H   0  0  0  0  0  0  0  0  0  0  0  0
   12.0751    3.4755    0.0000 H   0  0  0  0  0  0  0  0  0  0  0  0
   13.8740    2.8036    0.0000 H   0  0  0  0  0  0  0  0  0  0  0  0
    8.1258   -1.1043    0.0000 H   0  0  0  0  0  0  0  0  0  0  0  0
    3.4860    2.5398    0.0000 H   0  0  0  0  0  0  0  0  0  0  0  0
    2.8660    3.1598    0.0000 H   0  0  0  0  0  0  0  0  0  0  0  0
    2.2460    2.5398    0.0000 H   0  0  0  0  0  0  0  0  0  0  0  0
   11.2639   -0.3064    0.0000 H   0  0  0  0  0  0  0  0  0  0  0  0
    9.8703    2.1290    0.0000 H   0  0  0  0  0  0  0  0  0  0  0  0
    9.8578   -1.1110    0.0000 H   0  0  0  0  0  0  0  0  0  0  0  0
  1 16  2  0  0  0  0
  2 22  2  0  0  0  0
  3 10  1  0  0  0  0
  3 15  1  0  0  0  0
  3 16  1  0  0  0  0
  4 15  2  0  0  0  0
  4 25  1  0  0  0  0
  5 23  1  0  0  0  0
  5 24  1  0  0  0  0
  5 28  1  0  0  0  0
  6 26  1  0  0  0  0
  6 27  1  0  0  0  0
  6 55  1  0  0  0  0
  7 20  1  0  0  0  0
  7 25  2  0  0  0  0
  8 25  1  0  0  0  0
  8 30  1  0  0  0  0
  8 56  1  0  0  0  0
  9 30  2  0  0  0  0
  9 32  1  0  0  0  0
 10 11  1  0  0  0  0
 10 12  1  0  0  0  0
 10 34  1  0  0  0  0
 11 13  1  0  0  0  0
 11 35  1  0  0  0  0
 11 36  1  0  0  0  0
 12 14  1  0  0  0  0
 12 37  1  0  0  0  0
 12 38  1  0  0  0  0
 13 14  1  0  0  0  0
 13 39  1  0  0  0  0
 13 40  1  0  0  0  0
 14 41  1  0  0  0  0
 14 42  1  0  0  0  0
 15 17  1  0  0  0  0
 16 18  1  0  0  0  0
 17 19  1  0  0  0  0
 17 20  2  0  0  0  0
 18 19  2  0  0  0  0
 18 22  1  0  0  0  0
 19 21  1  0  0  0  0
 20 43  1  0  0  0  0
 21 48  1  0  0  0  0
 21 49  1  0  0  0  0
 21 50  1  0  0  0  0
 22 29  1  0  0  0  0
 23 26  1  0  0  0  0
 23 44  1  0  0  0  0
 23 45  1  0  0  0  0
 24 27  1  0  0  0  0
 24 46  1  0  0  0  0
 24 47  1  0  0  0  0
 26 51  1  0  0  0  0
 26 52  1  0  0  0  0
 27 53  1  0  0  0  0
 27 54  1  0  0  0  0
 28 31  1  0  0  0  0
 28 32  2  0  0  0  0
 29 57  1  0  0  0  0
 29 58  1  0  0  0  0
 29 59  1  0  0  0  0
 30 33  1  0  0  0  0
 31 33  2  0  0  0  0
 31 60  1  0  0  0  0
 32 61  1  0  0  0  0
 33 62  1  0  0  0  0
M  END
> <PUBCHEM_COMPOUND_CID>
5330286

> <PUBCHEM_COMPOUND_CANONICALIZED>
1

> <PUBCHEM_CACTVS_COMPLEXITY>
775

> <PUBCHEM_CACTVS_HBOND_ACCEPTOR>
8

> <PUBCHEM_CACTVS_HBOND_DONOR>
2

> <PUBCHEM_CACTVS_ROTATABLE_BOND>
5

> <PUBCHEM_CACTVS_SUBSKEYS>
AAADceB7sAAAAAAAAAAAAAAAAAAAAYAAAAAsWLEAAAAAAACB4AAAHgAQAAAADCzBmgQ/8JfIEACoArd3dACCgCkxEqAJ2KE4dNiIaPrI2dGUJAholwLIySYQAAAIAAAAAAAAAAAAAAAAAAAAAAAAAAAAAA==

> <PUBCHEM_IUPAC_OPENEYE_NAME>
6-acetyl-8-cyclopentyl-5-methyl-2-[(5-piperazin-1-yl-2-pyridyl)amino]pyrido[2,3-d]pyrimidin-7-one

> <PUBCHEM_IUPAC_CAS_NAME>
6-acetyl-8-cyclopentyl-5-methyl-2-[[5-(1-piperazinyl)-2-pyridinyl]amino]-7-pyrido[2,3-d]pyrimidinone

> <PUBCHEM_IUPAC_NAME_MARKUP>
6-acetyl-8-cyclopentyl-5-methyl-2-[(5-piperazin-1-ylpyridin-2-yl)amino]pyrido[2,3-d]pyrimidin-7-one

> <PUBCHEM_IUPAC_NAME>
6-acetyl-8-cyclopentyl-5-methyl-2-[(5-piperazin-1-ylpyridin-2-yl)amino]pyrido[2,3-d]pyrimidin-7-one

> <PUBCHEM_IUPAC_SYSTEMATIC_NAME>
8-cyclopentyl-6-ethanoyl-5-methyl-2-[(5-piperazin-1-ylpyridin-2-yl)amino]pyrido[2,3-d]pyrimidin-7-one

> <PUBCHEM_IUPAC_TRADITIONAL_NAME>
6-acetyl-8-cyclopentyl-5-methyl-2-[(5-piperazino-2-pyridyl)amino]pyrido[2,3-d]pyrimidin-7-one

> <PUBCHEM_IUPAC_INCHI>
InChI=1S/C24H29N7O2/c1-15-19-14-27-24(28-20-8-7-18(13-26-20)30-11-9-25-10-12-30)29-22(19)31(17-5-3-4-6-17)23(33)21(15)16(2)32/h7-8,13-14,17,25H,3-6,9-12H2,1-2H3,(H,26,27,28,29)

> <PUBCHEM_IUPAC_INCHIKEY>
AHJRHEGDXFFMBM-UHFFFAOYSA-N

> <PUBCHEM_XLOGP3_AA>
1.8

> <PUBCHEM_EXACT_MASS>
447.238273

> <PUBCHEM_MOLECULAR_FORMULA>
C24H29N7O2

> <PUBCHEM_MOLECULAR_WEIGHT>
447.5

> <PUBCHEM_OPENEYE_CAN_SMILES>
CC1=C(C(=O)N(C2=NC(=NC=C12)NC3=NC=C(C=C3)N4CCNCC4)C5CCCC5)C(=O)C

> <PUBCHEM_OPENEYE_ISO_SMILES>
CC1=C(C(=O)N(C2=NC(=NC=C12)NC3=NC=C(C=C3)N4CCNCC4)C5CCCC5)C(=O)C

> <PUBCHEM_CACTVS_TPSA>
103

> <PUBCHEM_MONOISOTOPIC_WEIGHT>
447.238273

> <PUBCHEM_TOTAL_CHARGE>
0

> <PUBCHEM_HEAVY_ATOM_COUNT>
33

> <PUBCHEM_ATOM_DEF_STEREO_COUNT>
0

> <PUBCHEM_ATOM_UDEF_STEREO_COUNT>
0

> <PUBCHEM_BOND_DEF_STEREO_COUNT>
0

> <PUBCHEM_BOND_UDEF_STEREO_COUNT>
0

> <PUBCHEM_ISOTOPIC_ATOM_COUNT>
0

> <PUBCHEM_COMPONENT_COUNT>
1

> <PUBCHEM_CACTVS_TAUTO_COUNT>
-1

> <PUBCHEM_COORDINATE_TYPE>
1
5
255

> <PUBCHEM_BONDANNOTATIONS>
15  17  8
16  18  8
17  19  8
17  20  8
18  19  8
28  31  8
28  32  8
3  15  8
3  16  8
30  33  8
31  33  8
4  15  8
4  25  8
7  20  8
7  25  8
9  30  8
9  32  8

$$$$
44224160
  -OEChem-02182015172D

 52 56  0     0  0  0  0  0  0999 V2000
    6.8994   -4.6174    0.0000 O   0  0  0  0  0  0  0  0  0  0  0  0
    5.2531   -5.1555    0.0000 O   0  0  0  0  0  0  0  0  0  0  0  0
    7.6343    3.6069    0.0000 O   0  0  0  0  0  0  0  0  0  0  0  0
    3.7320   -0.3044    0.0000 N   0  0  0  0  0  0  0  0  0  0  0  0
    5.2619    0.1956    0.0000 N   0  0  0  0  0  0  0  0  0  0  0  0
    2.8660   -0.8044    0.0000 N   0  0  0  0  0  0  0  0  0  0  0  0
    2.0000    0.6956    0.0000 N   0  0  0  0  0  0  0  0  0  0  0  0
    5.9352    2.2556    0.0000 N   0  0  0  0  0  0  0  0  0  0  0  0
    2.8660    2.1956    0.0000 N   0  0  0  0  0  0  0  0  0  0  0  0
    4.9889   -1.5596    0.0000 C   0  0  0  0  0  0  0  0  0  0  0  0
    5.9674   -1.7658    0.0000 C   0  0  0  0  0  0  0  0  0  0  0  0
    4.3211   -2.3039    0.0000 C   0  0  0  0  0  0  0  0  0  0  0  0
    5.6103   -3.4606    0.0000 C   0  0  0  0  0  0  0  0  0  0  0  0
    6.2781   -2.7164    0.0000 C   0  0  0  0  0  0  0  0  0  0  0  0
    4.6318   -3.2544    0.0000 C   0  0  0  0  0  0  0  0  0  0  0  0
    4.6783   -0.6091    0.0000 C   0  0  0  0  0  0  0  0  0  0  0  0
    5.9209   -4.4112    0.0000 C   0  0  0  0  0  0  0  0  0  0  0  0
    3.7320    0.6956    0.0000 C   0  0  0  0  0  0  0  0  0  0  0  0
    4.6783    1.0004    0.0000 C   0  0  0  0  0  0  0  0  0  0  0  0
    2.8660    1.1956    0.0000 C   0  0  0  0  0  0  0  0  0  0  0  0
    4.9889    1.9509    0.0000 C   0  0  0  0  0  0  0  0  0  0  0  0
    2.0000   -0.3044    0.0000 C   0  0  0  0  0  0  0  0  0  0  0  0
    4.4053    2.7556    0.0000 C   0  0  0  0  0  0  0  0  0  0  0  0
    4.9889    3.5604    0.0000 C   0  0  0  0  0  0  0  0  0  0  0  0
    5.9394    3.2497    0.0000 C   0  0  0  0  0  0  0  0  0  0  0  0
    6.6838    3.9175    0.0000 C   0  0  0  0  0  0  0  0  0  0  0  0
    4.7827    4.5389    0.0000 C   0  0  0  0  0  0  0  0  0  0  0  0
    6.4775    4.8960    0.0000 C   0  0  0  0  0  0  0  0  0  0  0  0
    5.5270    5.2067    0.0000 C   0  0  0  0  0  0  0  0  0  0  0  0
    8.3786    4.2747    0.0000 C   0  0  0  0  0  0  0  0  0  0  0  0
    5.4030   -1.0981    0.0000 H   0  0  0  0  0  0  0  0  0  0  0  0
    6.5812   -1.6785    0.0000 H   0  0  0  0  0  0  0  0  0  0  0  0
    5.9880   -1.1462    0.0000 H   0  0  0  0  0  0  0  0  0  0  0  0
    3.9385   -1.8160    0.0000 H   0  0  0  0  0  0  0  0  0  0  0  0
    3.7742   -2.5959    0.0000 H   0  0  0  0  0  0  0  0  0  0  0  0
    6.2169   -3.5885    0.0000 H   0  0  0  0  0  0  0  0  0  0  0  0
    6.6607   -3.2042    0.0000 H   0  0  0  0  0  0  0  0  0  0  0  0
    6.8250   -2.4243    0.0000 H   0  0  0  0  0  0  0  0  0  0  0  0
    4.0179   -3.3418    0.0000 H   0  0  0  0  0  0  0  0  0  0  0  0
    4.6112   -3.8741    0.0000 H   0  0  0  0  0  0  0  0  0  0  0  0
    2.8660   -1.4244    0.0000 H   0  0  0  0  0  0  0  0  0  0  0  0
    7.0920   -5.2067    0.0000 H   0  0  0  0  0  0  0  0  0  0  0  0
    1.4631   -0.6144    0.0000 H   0  0  0  0  0  0  0  0  0  0  0  0
    3.7853    2.7556    0.0000 H   0  0  0  0  0  0  0  0  0  0  0  0
    2.3291    2.5056    0.0000 H   0  0  0  0  0  0  0  0  0  0  0  0
    3.4030    2.5056    0.0000 H   0  0  0  0  0  0  0  0  0  0  0  0
    4.1934    4.7315    0.0000 H   0  0  0  0  0  0  0  0  0  0  0  0
    6.9390    5.3101    0.0000 H   0  0  0  0  0  0  0  0  0  0  0  0
    5.3992    5.8134    0.0000 H   0  0  0  0  0  0  0  0  0  0  0  0
    8.7926    3.8133    0.0000 H   0  0  0  0  0  0  0  0  0  0  0  0
    8.8400    4.6888    0.0000 H   0  0  0  0  0  0  0  0  0  0  0  0
    7.9645    4.7362    0.0000 H   0  0  0  0  0  0  0  0  0  0  0  0
  1 17  1  0  0  0  0
  1 42  1  0  0  0  0
  2 17  2  0  0  0  0
  3 26  1  0  0  0  0
  3 30  1  0  0  0  0
  4  6  1  0  0  0  0
  4 16  1  0  0  0  0
  4 18  1  0  0  0  0
  5 16  2  0  0  0  0
  5 19  1  0  0  0  0
  6 22  1  0  0  0  0
  6 41  1  0  0  0  0
  7 20  1  0  0  0  0
  7 22  2  0  0  0  0
  8 21  1  0  0  0  0
  8 25  2  0  0  0  0
  9 20  1  0  0  0  0
  9 45  1  0  0  0  0
  9 46  1  0  0  0  0
 10 11  1  0  0  0  0
 10 12  1  0  0  0  0
 10 16  1  0  0  0  0
 10 31  1  0  0  0  0
 11 14  1  0  0  0  0
 11 32  1  0  0  0  0
 11 33  1  0  0  0  0
 12 15  1  0  0  0  0
 12 34  1  0  0  0  0
 12 35  1  0  0  0  0
 13 14  1  0  0  0  0
 13 15  1  0  0  0  0
 13 17  1  0  0  0  0
 13 36  1  0  0  0  0
 14 37  1  0  0  0  0
 14 38  1  0  0  0  0
 15 39  1  0  0  0  0
 15 40  1  0  0  0  0
 18 19  1  0  0  0  0
 18 20  2  0  0  0  0
 19 21  2  0  0  0  0
 21 23  1  0  0  0  0
 22 43  1  0  0  0  0
 23 24  2  0  0  0  0
 23 44  1  0  0  0  0
 24 25  1  0  0  0  0
 24 27  1  0  0  0  0
 25 26  1  0  0  0  0
 26 28  2  0  0  0  0
 27 29  2  0  0  0  0
 27 47  1  0  0  0  0
 28 29  1  0  0  0  0
 28 48  1  0  0  0  0
 29 49  1  0  0  0  0
 30 50  1  0  0  0  0
 30 51  1  0  0  0  0
 30 52  1  0  0  0  0
M  END
> <PUBCHEM_COMPOUND_CID>
44224160

> <PUBCHEM_COMPOUND_CANONICALIZED>
1

> <PUBCHEM_CACTVS_COMPLEXITY>
1060

> <PUBCHEM_CACTVS_HBOND_ACCEPTOR>
7

> <PUBCHEM_CACTVS_HBOND_DONOR>
3

> <PUBCHEM_CACTVS_ROTATABLE_BOND>
3

> <PUBCHEM_CACTVS_SUBSKEYS>
AAADceB7sAAAAAAAAAAAAAAAAAAAAQIAAAAwQIAAAAAAAEAAAAAAHgAYCAAADQyBgAYDCAJiBgCoAybzbASACAEgIAAZKIEwABgIQBIAiQAUQAAEwACIgAOYyDCOAAAAAAAAAACAAAAAAAAAAAAAAAAAAA==

> <PUBCHEM_IUPAC_OPENEYE_NAME>
4-[(5Z)-4-amino-5-(7-methoxyindol-2-ylidene)-1H-imidazo[5,1-f][1,2,4]triazin-7-yl]cyclohexanecarboxylic acid

> <PUBCHEM_IUPAC_CAS_NAME>
4-[(5Z)-4-amino-5-(7-methoxy-2-indolylidene)-1H-imidazo[5,1-f][1,2,4]triazin-7-yl]-1-cyclohexanecarboxylic acid

> <PUBCHEM_IUPAC_NAME_MARKUP>
4-[(5<I>Z</I>)-4-amino-5-(7-methoxyindol-2-ylidene)-1<I>H</I>-imidazo[5,1-f][1,2,4]triazin-7-yl]cyclohexane-1-carboxylic acid

> <PUBCHEM_IUPAC_NAME>
4-[(5Z)-4-amino-5-(7-methoxyindol-2-ylidene)-1H-imidazo[5,1-f][1,2,4]triazin-7-yl]cyclohexane-1-carboxylic acid

> <PUBCHEM_IUPAC_SYSTEMATIC_NAME>
4-[(5Z)-4-azanyl-5-(7-methoxyindol-2-ylidene)-1H-imidazo[5,1-f][1,2,4]triazin-7-yl]cyclohexane-1-carboxylic acid

> <PUBCHEM_IUPAC_TRADITIONAL_NAME>
4-[(5Z)-4-amino-5-(7-methoxyindol-2-ylidene)-1H-imidazo[5,1-f][1,2,4]triazin-7-yl]cyclohexanecarboxylic acid

> <PUBCHEM_IUPAC_INCHI>
InChI=1S/C21H22N6O3/c1-30-15-4-2-3-13-9-14(25-16(13)15)17-18-19(22)23-10-24-27(18)20(26-17)11-5-7-12(8-6-11)21(28)29/h2-4,9-12H,5-8,22H2,1H3,(H,23,24)(H,28,29)/b17-14-

> <PUBCHEM_IUPAC_INCHIKEY>
CDNMDRUIGNHEMR-VKAVYKQESA-N

> <PUBCHEM_XLOGP3_AA>
2

> <PUBCHEM_EXACT_MASS>
406.175339

> <PUBCHEM_MOLECULAR_FORMULA>
C21H22N6O3

> <PUBCHEM_MOLECULAR_WEIGHT>
406.4

> <PUBCHEM_OPENEYE_CAN_SMILES>
COC1=CC=CC2=CC(=C3C4=C(N=CNN4C(=N3)C5CCC(CC5)C(=O)O)N)N=C21

> <PUBCHEM_OPENEYE_ISO_SMILES>
COC1=CC=CC2=C/C(=C/3\C4=C(N=CNN4C(=N3)C5CCC(CC5)C(=O)O)N)/N=C21

> <PUBCHEM_CACTVS_TPSA>
125

> <PUBCHEM_MONOISOTOPIC_WEIGHT>
406.175339

> <PUBCHEM_TOTAL_CHARGE>
0

> <PUBCHEM_HEAVY_ATOM_COUNT>
30

> <PUBCHEM_ATOM_DEF_STEREO_COUNT>
0

> <PUBCHEM_ATOM_UDEF_STEREO_COUNT>
0

> <PUBCHEM_BOND_DEF_STEREO_COUNT>
1

> <PUBCHEM_BOND_UDEF_STEREO_COUNT>
0

> <PUBCHEM_ISOTOPIC_ATOM_COUNT>
0

> <PUBCHEM_COMPONENT_COUNT>
1

> <PUBCHEM_CACTVS_TAUTO_COUNT>
-1

> <PUBCHEM_COORDINATE_TYPE>
1
5
255

> <PUBCHEM_BONDANNOTATIONS>
18  19  8
24  25  8
24  27  8
25  26  8
26  28  8
27  29  8
28  29  8
4  16  8
4  18  8
5  16  8
5  19  8

$$$$
11327430
  -OEChem-02182015172D

 49 54  0     0  0  0  0  0  0999 V2000
    4.5274   -0.3089    0.0000 S   0  0  0  0  0  0  0  0  0  0  0  0
   11.3199   -2.2422    0.0000 O   0  0  0  0  0  0  0  0  0  0  0  0
    8.3343   -0.2207    0.0000 O   0  0  0  0  0  0  0  0  0  0  0  0
    9.2614    2.6324    0.0000 O   0  0  0  0  0  0  0  0  0  0  0  0
    9.9816   -0.7560    0.0000 N   0  0  0  0  0  0  0  0  0  0  0  0
   10.9597   -0.5480    0.0000 C   0  0  0  0  0  0  0  0  0  0  0  0
    9.6726   -1.7070    0.0000 C   0  0  0  0  0  0  0  0  0  0  0  0
    9.3125   -0.0128    0.0000 C   0  0  0  0  0  0  0  0  0  0  0  0
   11.6289   -1.2912    0.0000 C   0  0  0  0  0  0  0  0  0  0  0  0
   10.3417   -2.4502    0.0000 C   0  0  0  0  0  0  0  0  0  0  0  0
    6.6498    0.2902    0.0000 C   0  0  0  0  0  0  0  0  0  0  0  0
    7.6652    0.5224    0.0000 C   0  0  0  0  0  0  0  0  0  0  0  0
    6.3518   -0.6644    0.0000 C   0  0  0  0  0  0  0  0  0  0  0  0
    5.3364   -0.8966    0.0000 C   0  0  0  0  0  0  0  0  0  0  0  0
    5.0274   -1.8477    0.0000 C   0  0  0  0  0  0  0  0  0  0  0  0
    7.9742    1.4735    0.0000 C   0  0  0  0  0  0  0  0  0  0  0  0
    4.0274   -1.8477    0.0000 C   0  0  0  0  0  0  0  0  0  0  0  0
    9.6215    0.9382    0.0000 C   0  0  0  0  0  0  0  0  0  0  0  0
    8.9524    1.6814    0.0000 C   0  0  0  0  0  0  0  0  0  0  0  0
    3.7183   -0.8966    0.0000 C   0  0  0  0  0  0  0  0  0  0  0  0
    5.9469    1.0588    0.0000 C   0  0  0  0  0  0  0  0  0  0  0  0
    7.0547   -1.4331    0.0000 C   0  0  0  0  0  0  0  0  0  0  0  0
    5.7123   -2.6324    0.0000 C   0  0  0  0  0  0  0  0  0  0  0  0
    7.2892    2.2582    0.0000 C   0  0  0  0  0  0  0  0  0  0  0  0
    6.7328   -2.4237    0.0000 C   0  0  0  0  0  0  0  0  0  0  0  0
    6.2687    2.0495    0.0000 C   0  0  0  0  0  0  0  0  0  0  0  0
    3.3424   -2.6324    0.0000 C   0  0  0  0  0  0  0  0  0  0  0  0
    2.7029   -0.6644    0.0000 C   0  0  0  0  0  0  0  0  0  0  0  0
    2.3219   -2.4237    0.0000 C   0  0  0  0  0  0  0  0  0  0  0  0
    2.0000   -1.4331    0.0000 C   0  0  0  0  0  0  0  0  0  0  0  0
   11.4855   -0.2195    0.0000 H   0  0  0  0  0  0  0  0  0  0  0  0
   10.7275    0.0268    0.0000 H   0  0  0  0  0  0  0  0  0  0  0  0
    9.1252   -1.4159    0.0000 H   0  0  0  0  0  0  0  0  0  0  0  0
    9.2909   -2.1956    0.0000 H   0  0  0  0  0  0  0  0  0  0  0  0
   12.1763   -1.5823    0.0000 H   0  0  0  0  0  0  0  0  0  0  0  0
   12.0106   -0.8026    0.0000 H   0  0  0  0  0  0  0  0  0  0  0  0
    9.8159   -2.7787    0.0000 H   0  0  0  0  0  0  0  0  0  0  0  0
   10.5740   -3.0250    0.0000 H   0  0  0  0  0  0  0  0  0  0  0  0
   10.2279    1.0672    0.0000 H   0  0  0  0  0  0  0  0  0  0  0  0
    5.3409    0.9276    0.0000 H   0  0  0  0  0  0  0  0  0  0  0  0
    7.6607   -1.3018    0.0000 H   0  0  0  0  0  0  0  0  0  0  0  0
    5.5139   -3.2198    0.0000 H   0  0  0  0  0  0  0  0  0  0  0  0
    7.4876    2.8456    0.0000 H   0  0  0  0  0  0  0  0  0  0  0  0
    7.1459   -2.8861    0.0000 H   0  0  0  0  0  0  0  0  0  0  0  0
    5.8556    2.5118    0.0000 H   0  0  0  0  0  0  0  0  0  0  0  0
    3.5408   -3.2198    0.0000 H   0  0  0  0  0  0  0  0  0  0  0  0
    2.5182   -0.0726    0.0000 H   0  0  0  0  0  0  0  0  0  0  0  0
    1.9088   -2.8861    0.0000 H   0  0  0  0  0  0  0  0  0  0  0  0
    1.3940   -1.3018    0.0000 H   0  0  0  0  0  0  0  0  0  0  0  0
  1 14  1  0  0  0  0
  1 20  1  0  0  0  0
  2  9  1  0  0  0  0
  2 10  1  0  0  0  0
  3  8  1  0  0  0  0
  3 12  1  0  0  0  0
  4 19  2  0  0  0  0
  5  6  1  0  0  0  0
  5  7  1  0  0  0  0
  5  8  1  0  0  0  0
  6  9  1  0  0  0  0
  6 31  1  0  0  0  0
  6 32  1  0  0  0  0
  7 10  1  0  0  0  0
  7 33  1  0  0  0  0
  7 34  1  0  0  0  0
  8 18  2  0  0  0  0
  9 35  1  0  0  0  0
  9 36  1  0  0  0  0
 10 37  1  0  0  0  0
 10 38  1  0  0  0  0
 11 12  1  0  0  0  0
 11 13  1  0  0  0  0
 11 21  2  0  0  0  0
 12 16  2  0  0  0  0
 13 14  1  0  0  0  0
 13 22  2  0  0  0  0
 14 15  2  0  0  0  0
 15 17  1  0  0  0  0
 15 23  1  0  0  0  0
 16 19  1  0  0  0  0
 16 24  1  0  0  0  0
 17 20  1  0  0  0  0
 17 27  2  0  0  0  0
 18 19  1  0  0  0  0
 18 39  1  0  0  0  0
 20 28  2  0  0  0  0
 21 26  1  0  0  0  0
 21 40  1  0  0  0  0
 22 25  1  0  0  0  0
 22 41  1  0  0  0  0
 23 25  2  0  0  0  0
 23 42  1  0  0  0  0
 24 26  2  0  0  0  0
 24 43  1  0  0  0  0
 25 44  1  0  0  0  0
 26 45  1  0  0  0  0
 27 29  1  0  0  0  0
 27 46  1  0  0  0  0
 28 30  1  0  0  0  0
 28 47  1  0  0  0  0
 29 30  2  0  0  0  0
 29 48  1  0  0  0  0
 30 49  1  0  0  0  0
M  END
> <PUBCHEM_COMPOUND_CID>
11327430

> <PUBCHEM_COMPOUND_CANONICALIZED>
1

> <PUBCHEM_CACTVS_COMPLEXITY>
690

> <PUBCHEM_CACTVS_HBOND_ACCEPTOR>
5

> <PUBCHEM_CACTVS_HBOND_DONOR>
0

> <PUBCHEM_CACTVS_ROTATABLE_BOND>
2

> <PUBCHEM_CACTVS_SUBSKEYS>
AAADceB6MABAAAAAAAAAAAAAAAAAASAAAAA8YMECAAAAAEiB/AAAHgQAAAAADATh2AYwB8MABAiMAqBSQAADCIAkKhBIiBkMCMgOJjakNRqLMWAk4BG4qceIyPCOgAACAAAMAAAAAAQAABgAAAAAAAAAAA==

> <PUBCHEM_IUPAC_OPENEYE_NAME>
8-dibenzothiophen-4-yl-2-morpholino-chromen-4-one

> <PUBCHEM_IUPAC_CAS_NAME>
8-(4-dibenzothiophenyl)-2-(4-morpholinyl)-1-benzopyran-4-one

> <PUBCHEM_IUPAC_NAME_MARKUP>
8-dibenzothiophen-4-yl-2-morpholin-4-ylchromen-4-one

> <PUBCHEM_IUPAC_NAME>
8-dibenzothiophen-4-yl-2-morpholin-4-ylchromen-4-one

> <PUBCHEM_IUPAC_SYSTEMATIC_NAME>
8-dibenzothiophen-4-yl-2-morpholin-4-yl-chromen-4-one

> <PUBCHEM_IUPAC_TRADITIONAL_NAME>
8-dibenzothiophen-4-yl-2-morpholino-chromone

> <PUBCHEM_IUPAC_INCHI>
InChI=1S/C25H19NO3S/c27-21-15-23(26-11-13-28-14-12-26)29-24-17(6-3-9-20(21)24)19-8-4-7-18-16-5-1-2-10-22(16)30-25(18)19/h1-10,15H,11-14H2

> <PUBCHEM_IUPAC_INCHIKEY>
JAMULYFATHSZJM-UHFFFAOYSA-N

> <PUBCHEM_XLOGP3_AA>
5.5

> <PUBCHEM_EXACT_MASS>
413.108565

> <PUBCHEM_MOLECULAR_FORMULA>
C25H19NO3S

> <PUBCHEM_MOLECULAR_WEIGHT>
413.5

> <PUBCHEM_OPENEYE_CAN_SMILES>
C1COCCN1C2=CC(=O)C3=C(O2)C(=CC=C3)C4=CC=CC5=C4SC6=CC=CC=C56

> <PUBCHEM_OPENEYE_ISO_SMILES>
C1COCCN1C2=CC(=O)C3=C(O2)C(=CC=C3)C4=CC=CC5=C4SC6=CC=CC=C56

> <PUBCHEM_CACTVS_TPSA>
67

> <PUBCHEM_MONOISOTOPIC_WEIGHT>
413.108565

> <PUBCHEM_TOTAL_CHARGE>
0

> <PUBCHEM_HEAVY_ATOM_COUNT>
30

> <PUBCHEM_ATOM_DEF_STEREO_COUNT>
0

> <PUBCHEM_ATOM_UDEF_STEREO_COUNT>
0

> <PUBCHEM_BOND_DEF_STEREO_COUNT>
0

> <PUBCHEM_BOND_UDEF_STEREO_COUNT>
0

> <PUBCHEM_ISOTOPIC_ATOM_COUNT>
0

> <PUBCHEM_COMPONENT_COUNT>
1

> <PUBCHEM_CACTVS_TAUTO_COUNT>
-1

> <PUBCHEM_COORDINATE_TYPE>
1
5
255

> <PUBCHEM_BONDANNOTATIONS>
1  14  8
1  20  8
11  12  8
11  21  8
12  16  8
13  14  8
13  22  8
14  15  8
15  17  8
15  23  8
16  19  8
16  24  8
17  20  8
17  27  8
18  19  8
20  28  8
21  26  8
22  25  8
23  25  8
24  26  8
27  29  8
28  30  8
29  30  8
3  12  8
3  8  8
8  18  8

$$$$
71297207
  -OEChem-02182015172D

 70 75  0     0  0  0  0  0  0999 V2000
    5.6020    2.4745    0.0000 S   0  0  0  0  0  0  0  0  0  0  0  0
   10.8335    0.3316    0.0000 S   0  0  0  0  0  0  0  0  0  0  0  0
    4.9859   -1.1786    0.0000 O   0  0  0  0  0  0  0  0  0  0  0  0
    2.7225    4.1507    0.0000 O   0  0  0  0  0  0  0  0  0  0  0  0
    2.5415    2.4281    0.0000 O   0  0  0  0  0  0  0  0  0  0  0  0
    9.1869    2.4344    0.0000 N   0  0  0  0  0  0  0  0  0  0  0  0
    4.7929    3.8757    0.0000 N   0  0  0  0  0  0  0  0  0  0  0  0
   10.0471    1.9244    0.0000 N   0  0  0  0  0  0  0  0  0  0  0  0
    9.2241    0.3502    0.0000 N   0  0  0  0  0  0  0  0  0  0  0  0
    2.3644   -4.9373    0.0000 N   0  0  0  0  0  0  0  0  0  0  0  0
    9.1985    5.5037    0.0000 C   0  0  0  0  0  0  0  0  0  0  0  0
   10.1046    4.9898    0.0000 C   0  0  0  0  0  0  0  0  0  0  0  0
    8.3046    4.9690    0.0000 C   0  0  0  0  0  0  0  0  0  0  0  0
   10.1046    3.9482    0.0000 C   0  0  0  0  0  0  0  0  0  0  0  0
    8.3046    3.9690    0.0000 C   0  0  0  0  0  0  0  0  0  0  0  0
    9.1985    3.4343    0.0000 C   0  0  0  0  0  0  0  0  0  0  0  0
    7.4385    3.4690    0.0000 C   0  0  0  0  0  0  0  0  0  0  0  0
    7.4385    5.4690    0.0000 C   0  0  0  0  0  0  0  0  0  0  0  0
    6.5725    3.9690    0.0000 C   0  0  0  0  0  0  0  0  0  0  0  0
    6.5725    4.9690    0.0000 C   0  0  0  0  0  0  0  0  0  0  0  0
    5.7065    3.4690    0.0000 C   0  0  0  0  0  0  0  0  0  0  0  0
    4.6238    2.2666    0.0000 C   0  0  0  0  0  0  0  0  0  0  0  0
    4.2171    1.3530    0.0000 C   0  0  0  0  0  0  0  0  0  0  0  0
    4.8048    0.5440    0.0000 C   0  0  0  0  0  0  0  0  0  0  0  0
    4.1238    3.1326    0.0000 C   0  0  0  0  0  0  0  0  0  0  0  0
    4.3981   -0.3695    0.0000 C   0  0  0  0  0  0  0  0  0  0  0  0
   10.0356    0.9245    0.0000 C   0  0  0  0  0  0  0  0  0  0  0  0
    3.1293    3.2371    0.0000 C   0  0  0  0  0  0  0  0  0  0  0  0
    4.5792   -2.0921    0.0000 C   0  0  0  0  0  0  0  0  0  0  0  0
   10.5178   -0.6110    0.0000 C   0  0  0  0  0  0  0  0  0  0  0  0
    9.5179   -0.5994    0.0000 C   0  0  0  0  0  0  0  0  0  0  0  0
    3.5846   -2.1966    0.0000 C   0  0  0  0  0  0  0  0  0  0  0  0
    5.1669   -2.9011    0.0000 C   0  0  0  0  0  0  0  0  0  0  0  0
    3.7657   -3.9192    0.0000 C   0  0  0  0  0  0  0  0  0  0  0  0
    3.1779   -3.1102    0.0000 C   0  0  0  0  0  0  0  0  0  0  0  0
    4.7602   -3.8147    0.0000 C   0  0  0  0  0  0  0  0  0  0  0  0
   11.0078   -1.4828    0.0000 C   0  0  0  0  0  0  0  0  0  0  0  0
    9.0079   -1.4596    0.0000 C   0  0  0  0  0  0  0  0  0  0  0  0
    3.3590   -4.8327    0.0000 C   0  0  0  0  0  0  0  0  0  0  0  0
   10.4978   -2.3430    0.0000 C   0  0  0  0  0  0  0  0  0  0  0  0
    9.4979   -2.3314    0.0000 C   0  0  0  0  0  0  0  0  0  0  0  0
    9.5921    5.9827    0.0000 H   0  0  0  0  0  0  0  0  0  0  0  0
    8.7939    5.9734    0.0000 H   0  0  0  0  0  0  0  0  0  0  0  0
   10.7154    4.8837    0.0000 H   0  0  0  0  0  0  0  0  0  0  0  0
   10.3136    5.5735    0.0000 H   0  0  0  0  0  0  0  0  0  0  0  0
   10.3136    3.3645    0.0000 H   0  0  0  0  0  0  0  0  0  0  0  0
   10.7154    4.0543    0.0000 H   0  0  0  0  0  0  0  0  0  0  0  0
    7.4385    2.8490    0.0000 H   0  0  0  0  0  0  0  0  0  0  0  0
    7.4385    6.0890    0.0000 H   0  0  0  0  0  0  0  0  0  0  0  0
    6.0356    5.2790    0.0000 H   0  0  0  0  0  0  0  0  0  0  0  0
    3.7031    1.6997    0.0000 H   0  0  0  0  0  0  0  0  0  0  0  0
    3.7864    0.9070    0.0000 H   0  0  0  0  0  0  0  0  0  0  0  0
    5.3188    0.1973    0.0000 H   0  0  0  0  0  0  0  0  0  0  0  0
    5.2355    0.9900    0.0000 H   0  0  0  0  0  0  0  0  0  0  0  0
   10.5876    2.2282    0.0000 H   0  0  0  0  0  0  0  0  0  0  0  0
    3.8841   -0.0228    0.0000 H   0  0  0  0  0  0  0  0  0  0  0  0
    3.9674   -0.8155    0.0000 H   0  0  0  0  0  0  0  0  0  0  0  0
    3.2202   -1.6950    0.0000 H   0  0  0  0  0  0  0  0  0  0  0  0
    5.7836   -2.8363    0.0000 H   0  0  0  0  0  0  0  0  0  0  0  0
    2.5613   -3.1750    0.0000 H   0  0  0  0  0  0  0  0  0  0  0  0
    5.1246   -4.3162    0.0000 H   0  0  0  0  0  0  0  0  0  0  0  0
   11.6277   -1.4899    0.0000 H   0  0  0  0  0  0  0  0  0  0  0  0
    8.3880   -1.4525    0.0000 H   0  0  0  0  0  0  0  0  0  0  0  0
    2.1059    4.2155    0.0000 H   0  0  0  0  0  0  0  0  0  0  0  0
    3.3157   -5.4512    0.0000 H   0  0  0  0  0  0  0  0  0  0  0  0
    3.9605   -4.9827    0.0000 H   0  0  0  0  0  0  0  0  0  0  0  0
   10.8016   -2.8834    0.0000 H   0  0  0  0  0  0  0  0  0  0  0  0
    9.1817   -2.8647    0.0000 H   0  0  0  0  0  0  0  0  0  0  0  0
    2.1122   -5.5037    0.0000 H   0  0  0  0  0  0  0  0  0  0  0  0
    2.0000   -4.4357    0.0000 H   0  0  0  0  0  0  0  0  0  0  0  0
  1 21  1  0  0  0  0
  1 22  1  0  0  0  0
  2 27  1  0  0  0  0
  2 30  1  0  0  0  0
  3 26  1  0  0  0  0
  3 29  1  0  0  0  0
  4 28  1  0  0  0  0
  4 64  1  0  0  0  0
  5 28  2  0  0  0  0
  6  8  1  0  0  0  0
  6 16  2  0  0  0  0
  7 21  2  0  0  0  0
  7 25  1  0  0  0  0
  8 27  1  0  0  0  0
  8 55  1  0  0  0  0
  9 27  2  0  0  0  0
  9 31  1  0  0  0  0
 10 39  1  0  0  0  0
 10 69  1  0  0  0  0
 10 70  1  0  0  0  0
 11 12  1  0  0  0  0
 11 13  1  0  0  0  0
 11 42  1  0  0  0  0
 11 43  1  0  0  0  0
 12 14  1  0  0  0  0
 12 44  1  0  0  0  0
 12 45  1  0  0  0  0
 13 15  2  0  0  0  0
 13 18  1  0  0  0  0
 14 16  1  0  0  0  0
 14 46  1  0  0  0  0
 14 47  1  0  0  0  0
 15 16  1  0  0  0  0
 15 17  1  0  0  0  0
 17 19  2  0  0  0  0
 17 48  1  0  0  0  0
 18 20  2  0  0  0  0
 18 49  1  0  0  0  0
 19 20  1  0  0  0  0
 19 21  1  0  0  0  0
 20 50  1  0  0  0  0
 22 23  1  0  0  0  0
 22 25  2  0  0  0  0
 23 24  1  0  0  0  0
 23 51  1  0  0  0  0
 23 52  1  0  0  0  0
 24 26  1  0  0  0  0
 24 53  1  0  0  0  0
 24 54  1  0  0  0  0
 25 28  1  0  0  0  0
 26 56  1  0  0  0  0
 26 57  1  0  0  0  0
 29 32  2  0  0  0  0
 29 33  1  0  0  0  0
 30 31  1  0  0  0  0
 30 37  2  0  0  0  0
 31 38  2  0  0  0  0
 32 35  1  0  0  0  0
 32 58  1  0  0  0  0
 33 36  2  0  0  0  0
 33 59  1  0  0  0  0
 34 35  2  0  0  0  0
 34 36  1  0  0  0  0
 34 39  1  0  0  0  0
 35 60  1  0  0  0  0
 36 61  1  0  0  0  0
 37 40  1  0  0  0  0
 37 62  1  0  0  0  0
 38 41  1  0  0  0  0
 38 63  1  0  0  0  0
 39 65  1  0  0  0  0
 39 66  1  0  0  0  0
 40 41  2  0  0  0  0
 40 67  1  0  0  0  0
 41 68  1  0  0  0  0
M  END
> <PUBCHEM_COMPOUND_CID>
71297207

> <PUBCHEM_COMPOUND_CANONICALIZED>
1

> <PUBCHEM_CACTVS_COMPLEXITY>
903

> <PUBCHEM_CACTVS_HBOND_ACCEPTOR>
10

> <PUBCHEM_CACTVS_HBOND_DONOR>
3

> <PUBCHEM_CACTVS_ROTATABLE_BOND>
10

> <PUBCHEM_CACTVS_SUBSKEYS>
AAADceB7sABgAAAAAAAAAAAAAAAAAWLAAAAwYMGAAAAAAFjB/AAAHgQYCAAADAzh3gYx37JqFgisAyTybAST+KlnKjlMmL22bNiOJrLksbuGeSjkyBP4+SeY2MMO4AACAAAQAQDAAAQAACACAAAAAAAAAA==

> <PUBCHEM_IUPAC_OPENEYE_NAME>
5-[3-[4-(aminomethyl)phenoxy]propyl]-2-[(4E)-4-(1,3-benzothiazol-2-ylhydrazono)tetralin-6-yl]thiazole-4-carboxylic acid

> <PUBCHEM_IUPAC_CAS_NAME>
5-[3-[4-(aminomethyl)phenoxy]propyl]-2-[(8E)-8-(1,3-benzothiazol-2-ylhydrazinylidene)-6,7-dihydro-5H-naphthalen-2-yl]-4-thiazolecarboxylic acid

> <PUBCHEM_IUPAC_NAME_MARKUP>
5-[3-[4-(aminomethyl)phenoxy]propyl]-2-[(8<I>E</I>)-8-(1,3-benzothiazol-2-ylhydrazinylidene)-6,7-dihydro-5<I>H</I>-naphthalen-2-yl]-1,3-thiazole-4-carboxylic acid

> <PUBCHEM_IUPAC_NAME>
5-[3-[4-(aminomethyl)phenoxy]propyl]-2-[(8E)-8-(1,3-benzothiazol-2-ylhydrazinylidene)-6,7-dihydro-5H-naphthalen-2-yl]-1,3-thiazole-4-carboxylic acid

> <PUBCHEM_IUPAC_SYSTEMATIC_NAME>
5-[3-[4-(aminomethyl)phenoxy]propyl]-2-[(8E)-8-(1,3-benzothiazol-2-ylhydrazinylidene)-6,7-dihydro-5H-naphthalen-2-yl]-1,3-thiazole-4-carboxylic acid

> <PUBCHEM_IUPAC_TRADITIONAL_NAME>
5-[3-[4-(aminomethyl)phenoxy]propyl]-2-[(4E)-4-(1,3-benzothiazol-2-ylhydrazono)tetralin-6-yl]thiazole-4-carboxylic acid

> <PUBCHEM_IUPAC_INCHI>
InChI=1S/C31H29N5O3S2/c32-18-19-10-14-22(15-11-19)39-16-4-9-27-28(30(37)38)34-29(40-27)21-13-12-20-5-3-7-24(23(20)17-21)35-36-31-33-25-6-1-2-8-26(25)41-31/h1-2,6,8,10-15,17H,3-5,7,9,16,18,32H2,(H,33,36)(H,37,38)/b35-24+

> <PUBCHEM_IUPAC_INCHIKEY>
JKMWZKPAXZBYEH-JWHWKPFMSA-N

> <PUBCHEM_XLOGP3_AA>
4.4

> <PUBCHEM_EXACT_MASS>
583.171182

> <PUBCHEM_MOLECULAR_FORMULA>
C31H29N5O3S2

> <PUBCHEM_MOLECULAR_WEIGHT>
583.7

> <PUBCHEM_OPENEYE_CAN_SMILES>
C1CC2=C(C=C(C=C2)C3=NC(=C(S3)CCCOC4=CC=C(C=C4)CN)C(=O)O)C(=NNC5=NC6=CC=CC=C6S5)C1

> <PUBCHEM_OPENEYE_ISO_SMILES>
C1CC2=C(C=C(C=C2)C3=NC(=C(S3)CCCOC4=CC=C(C=C4)CN)C(=O)O)/C(=N/NC5=NC6=CC=CC=C6S5)/C1

> <PUBCHEM_CACTVS_TPSA>
179

> <PUBCHEM_MONOISOTOPIC_WEIGHT>
583.171182

> <PUBCHEM_TOTAL_CHARGE>
0

> <PUBCHEM_HEAVY_ATOM_COUNT>
41

> <PUBCHEM_ATOM_DEF_STEREO_COUNT>
0

> <PUBCHEM_ATOM_UDEF_STEREO_COUNT>
0

> <PUBCHEM_BOND_DEF_STEREO_COUNT>
1

> <PUBCHEM_BOND_UDEF_STEREO_COUNT>
0

> <PUBCHEM_ISOTOPIC_ATOM_COUNT>
0

> <PUBCHEM_COMPONENT_COUNT>
1

> <PUBCHEM_CACTVS_TAUTO_COUNT>
-1

> <PUBCHEM_COORDINATE_TYPE>
1
5
255

> <PUBCHEM_BONDANNOTATIONS>
1  21  8
1  22  8
13  15  8
13  18  8
15  17  8
17  19  8
18  20  8
19  20  8
2  27  8
2  30  8
22  25  8
29  32  8
29  33  8
30  31  8
30  37  8
31  38  8
32  35  8
33  36  8
34  35  8
34  36  8
37  40  8
38  41  8
40  41  8
7  21  8
7  25  8
9  27  8
9  31  8

$$$$
25227847
  -OEChem-02182015172D

 76 80  0     0  0  0  0  0  0999 V2000
    4.6660    2.7500    0.0000 O   0  0  0  0  0  0  0  0  0  0  0  0
   13.3263    2.7500    0.0000 O   0  0  0  0  0  0  0  0  0  0  0  0
    8.9962   -2.7500    0.0000 O   0  0  0  0  0  0  0  0  0  0  0  0
    7.2641    1.2500    0.0000 O   0  0  0  0  0  0  0  0  0  0  0  0
   10.7282    1.2500    0.0000 O   0  0  0  0  0  0  0  0  0  0  0  0
    4.6660   -0.2500    0.0000 N   0  0  0  0  0  0  0  0  0  0  0  0
   13.3263   -0.2500    0.0000 N   0  0  0  0  0  0  0  0  0  0  0  0
    6.3981   -0.2500    0.0000 N   0  0  0  0  0  0  0  0  0  0  0  0
   11.5942   -0.2500    0.0000 N   0  0  0  0  0  0  0  0  0  0  0  0
    8.9962    0.2500    0.0000 N   0  0  0  0  0  0  0  0  0  0  0  0
    6.3981    4.7500    0.0000 N   0  0  0  0  0  0  0  0  0  0  0  0
   11.5942    4.7500    0.0000 N   0  0  0  0  0  0  0  0  0  0  0  0
   10.7282   -4.7500    0.0000 N   0  0  0  0  0  0  0  0  0  0  0  0
    3.8000    1.2500    0.0000 C   0  0  0  0  0  0  0  0  0  0  0  0
   14.1923    1.2500    0.0000 C   0  0  0  0  0  0  0  0  0  0  0  0
    4.6660    1.7500    0.0000 C   0  0  0  0  0  0  0  0  0  0  0  0
   13.3263    1.7500    0.0000 C   0  0  0  0  0  0  0  0  0  0  0  0
    3.8000    0.2500    0.0000 C   0  0  0  0  0  0  0  0  0  0  0  0
   14.1923    0.2500    0.0000 C   0  0  0  0  0  0  0  0  0  0  0  0
    5.5321    0.2500    0.0000 C   0  0  0  0  0  0  0  0  0  0  0  0
   12.4603    0.2500    0.0000 C   0  0  0  0  0  0  0  0  0  0  0  0
    5.5321    1.2500    0.0000 C   0  0  0  0  0  0  0  0  0  0  0  0
   12.4603    1.2500    0.0000 C   0  0  0  0  0  0  0  0  0  0  0  0
    2.9061    1.7847    0.0000 C   0  0  0  0  0  0  0  0  0  0  0  0
   15.0863    1.7847    0.0000 C   0  0  0  0  0  0  0  0  0  0  0  0
    2.9061   -0.2847    0.0000 C   0  0  0  0  0  0  0  0  0  0  0  0
   15.0863   -0.2847    0.0000 C   0  0  0  0  0  0  0  0  0  0  0  0
    8.1301   -0.2500    0.0000 C   0  0  0  0  0  0  0  0  0  0  0  0
    9.8622   -0.2500    0.0000 C   0  0  0  0  0  0  0  0  0  0  0  0
    8.9962   -1.7500    0.0000 C   0  0  0  0  0  0  0  0  0  0  0  0
    7.2641    0.2500    0.0000 C   0  0  0  0  0  0  0  0  0  0  0  0
   10.7282    0.2500    0.0000 C   0  0  0  0  0  0  0  0  0  0  0  0
    2.0000    1.2708    0.0000 C   0  0  0  0  0  0  0  0  0  0  0  0
   15.9923    1.2708    0.0000 C   0  0  0  0  0  0  0  0  0  0  0  0
    5.5321    3.2500    0.0000 C   0  0  0  0  0  0  0  0  0  0  0  0
   12.4603    3.2500    0.0000 C   0  0  0  0  0  0  0  0  0  0  0  0
    2.0000    0.2292    0.0000 C   0  0  0  0  0  0  0  0  0  0  0  0
   15.9923    0.2292    0.0000 C   0  0  0  0  0  0  0  0  0  0  0  0
    8.1301   -1.2500    0.0000 C   0  0  0  0  0  0  0  0  0  0  0  0
    9.8622   -1.2500    0.0000 C   0  0  0  0  0  0  0  0  0  0  0  0
    5.5321    4.2500    0.0000 C   0  0  0  0  0  0  0  0  0  0  0  0
   12.4603    4.2500    0.0000 C   0  0  0  0  0  0  0  0  0  0  0  0
    9.8622   -3.2500    0.0000 C   0  0  0  0  0  0  0  0  0  0  0  0
    9.8622   -4.2500    0.0000 C   0  0  0  0  0  0  0  0  0  0  0  0
    6.0690    1.5600    0.0000 H   0  0  0  0  0  0  0  0  0  0  0  0
   11.9233    1.5600    0.0000 H   0  0  0  0  0  0  0  0  0  0  0  0
    2.9132    2.4046    0.0000 H   0  0  0  0  0  0  0  0  0  0  0  0
   15.0791    2.4046    0.0000 H   0  0  0  0  0  0  0  0  0  0  0  0
    2.9132   -0.9046    0.0000 H   0  0  0  0  0  0  0  0  0  0  0  0
   15.0791   -0.9046    0.0000 H   0  0  0  0  0  0  0  0  0  0  0  0
    6.3981   -0.8700    0.0000 H   0  0  0  0  0  0  0  0  0  0  0  0
   11.5942   -0.8700    0.0000 H   0  0  0  0  0  0  0  0  0  0  0  0
    1.4643    1.5829    0.0000 H   0  0  0  0  0  0  0  0  0  0  0  0
   16.5281    1.5829    0.0000 H   0  0  0  0  0  0  0  0  0  0  0  0
    5.7441    2.6674    0.0000 H   0  0  0  0  0  0  0  0  0  0  0  0
    6.1426    3.3577    0.0000 H   0  0  0  0  0  0  0  0  0  0  0  0
   11.8497    3.3577    0.0000 H   0  0  0  0  0  0  0  0  0  0  0  0
   12.2482    2.6674    0.0000 H   0  0  0  0  0  0  0  0  0  0  0  0
    1.4643   -0.0829    0.0000 H   0  0  0  0  0  0  0  0  0  0  0  0
   16.5281   -0.0829    0.0000 H   0  0  0  0  0  0  0  0  0  0  0  0
    7.5932   -1.5600    0.0000 H   0  0  0  0  0  0  0  0  0  0  0  0
   10.3991   -1.5600    0.0000 H   0  0  0  0  0  0  0  0  0  0  0  0
    5.3200    4.8326    0.0000 H   0  0  0  0  0  0  0  0  0  0  0  0
    4.9215    4.1423    0.0000 H   0  0  0  0  0  0  0  0  0  0  0  0
   13.0708    4.1423    0.0000 H   0  0  0  0  0  0  0  0  0  0  0  0
   12.6723    4.8326    0.0000 H   0  0  0  0  0  0  0  0  0  0  0  0
   10.4728   -3.3577    0.0000 H   0  0  0  0  0  0  0  0  0  0  0  0
   10.0742   -2.6674    0.0000 H   0  0  0  0  0  0  0  0  0  0  0  0
    9.2516   -4.1423    0.0000 H   0  0  0  0  0  0  0  0  0  0  0  0
    9.6501   -4.8326    0.0000 H   0  0  0  0  0  0  0  0  0  0  0  0
    6.3981    5.3700    0.0000 H   0  0  0  0  0  0  0  0  0  0  0  0
    6.9350    4.4400    0.0000 H   0  0  0  0  0  0  0  0  0  0  0  0
   11.5942    5.3700    0.0000 H   0  0  0  0  0  0  0  0  0  0  0  0
   11.0573    4.4400    0.0000 H   0  0  0  0  0  0  0  0  0  0  0  0
   10.7282   -5.3700    0.0000 H   0  0  0  0  0  0  0  0  0  0  0  0
   11.2651   -4.4400    0.0000 H   0  0  0  0  0  0  0  0  0  0  0  0
  1 16  1  0  0  0  0
  1 35  1  0  0  0  0
  2 17  1  0  0  0  0
  2 36  1  0  0  0  0
  3 30  1  0  0  0  0
  3 43  1  0  0  0  0
  4 31  2  0  0  0  0
  5 32  2  0  0  0  0
  6 18  1  0  0  0  0
  6 20  2  0  0  0  0
  7 19  1  0  0  0  0
  7 21  2  0  0  0  0
  8 20  1  0  0  0  0
  8 31  1  0  0  0  0
  8 51  1  0  0  0  0
  9 21  1  0  0  0  0
  9 32  1  0  0  0  0
  9 52  1  0  0  0  0
 10 28  2  0  0  0  0
 10 29  1  0  0  0  0
 11 41  1  0  0  0  0
 11 71  1  0  0  0  0
 11 72  1  0  0  0  0
 12 42  1  0  0  0  0
 12 73  1  0  0  0  0
 12 74  1  0  0  0  0
 13 44  1  0  0  0  0
 13 75  1  0  0  0  0
 13 76  1  0  0  0  0
 14 16  1  0  0  0  0
 14 18  1  0  0  0  0
 14 24  2  0  0  0  0
 15 17  1  0  0  0  0
 15 19  1  0  0  0  0
 15 25  2  0  0  0  0
 16 22  2  0  0  0  0
 17 23  2  0  0  0  0
 18 26  2  0  0  0  0
 19 27  2  0  0  0  0
 20 22  1  0  0  0  0
 21 23  1  0  0  0  0
 22 45  1  0  0  0  0
 23 46  1  0  0  0  0
 24 33  1  0  0  0  0
 24 47  1  0  0  0  0
 25 34  1  0  0  0  0
 25 48  1  0  0  0  0
 26 37  1  0  0  0  0
 26 49  1  0  0  0  0
 27 38  1  0  0  0  0
 27 50  1  0  0  0  0
 28 31  1  0  0  0  0
 28 39  1  0  0  0  0
 29 32  1  0  0  0  0
 29 40  2  0  0  0  0
 30 39  2  0  0  0  0
 30 40  1  0  0  0  0
 33 37  2  0  0  0  0
 33 53  1  0  0  0  0
 34 38  2  0  0  0  0
 34 54  1  0  0  0  0
 35 41  1  0  0  0  0
 35 55  1  0  0  0  0
 35 56  1  0  0  0  0
 36 42  1  0  0  0  0
 36 57  1  0  0  0  0
 36 58  1  0  0  0  0
 37 59  1  0  0  0  0
 38 60  1  0  0  0  0
 39 61  1  0  0  0  0
 40 62  1  0  0  0  0
 41 63  1  0  0  0  0
 41 64  1  0  0  0  0
 42 65  1  0  0  0  0
 42 66  1  0  0  0  0
 43 44  1  0  0  0  0
 43 67  1  0  0  0  0
 43 68  1  0  0  0  0
 44 69  1  0  0  0  0
 44 70  1  0  0  0  0
M  END
> <PUBCHEM_COMPOUND_CID>
25227847

> <PUBCHEM_COMPOUND_CANONICALIZED>
1

> <PUBCHEM_CACTVS_COMPLEXITY>
850

> <PUBCHEM_CACTVS_HBOND_ACCEPTOR>
11

> <PUBCHEM_CACTVS_HBOND_DONOR>
5

> <PUBCHEM_CACTVS_ROTATABLE_BOND>
13

> <PUBCHEM_CACTVS_SUBSKEYS>
AAADcfB7+AAAAAAAAAAAAAAAAAAAAAAAAAA8eLECAAAAAACx/gAAHgAQAAAADAzhngYx9vLIFACoAydydACCiCknIiAJmKG2bNiOZvLEvbuXOSju1RvI6ae6yKCOAAAAAAACAAAAAAAAAAQAAAAAAAAAAA==

> <PUBCHEM_IUPAC_OPENEYE_NAME>
4-(2-aminoethoxy)-N2,N6-bis[4-(2-aminoethoxy)-2-quinolyl]pyridine-2,6-dicarboxamide

> <PUBCHEM_IUPAC_CAS_NAME>
4-(2-aminoethoxy)-N2,N6-bis[4-(2-aminoethoxy)-2-quinolinyl]pyridine-2,6-dicarboxamide

> <PUBCHEM_IUPAC_NAME_MARKUP>
4-(2-aminoethoxy)-2-<I>N</I>,6-<I>N</I>-bis[4-(2-aminoethoxy)quinolin-2-yl]pyridine-2,6-dicarboxamide

> <PUBCHEM_IUPAC_NAME>
4-(2-aminoethoxy)-2-N,6-N-bis[4-(2-aminoethoxy)quinolin-2-yl]pyridine-2,6-dicarboxamide

> <PUBCHEM_IUPAC_SYSTEMATIC_NAME>
4-(2-azanylethoxy)-N2,N6-bis[4-(2-azanylethoxy)quinolin-2-yl]pyridine-2,6-dicarboxamide

> <PUBCHEM_IUPAC_TRADITIONAL_NAME>
4-(2-aminoethoxy)-N,N'-bis[4-(2-aminoethoxy)-2-quinolyl]dipicolinamide

> <PUBCHEM_IUPAC_INCHI>
InChI=1S/C31H32N8O5/c32-9-12-42-19-15-24(30(40)38-28-17-26(43-13-10-33)20-5-1-3-7-22(20)36-28)35-25(16-19)31(41)39-29-18-27(44-14-11-34)21-6-2-4-8-23(21)37-29/h1-8,15-18H,9-14,32-34H2,(H,36,38,40)(H,37,39,41)

> <PUBCHEM_IUPAC_INCHIKEY>
VGHSATQVJCTKEF-UHFFFAOYSA-N

> <PUBCHEM_XLOGP3_AA>
1.5

> <PUBCHEM_EXACT_MASS>
596.249566

> <PUBCHEM_MOLECULAR_FORMULA>
C31H32N8O5

> <PUBCHEM_MOLECULAR_WEIGHT>
596.6

> <PUBCHEM_OPENEYE_CAN_SMILES>
C1=CC=C2C(=C1)C(=CC(=N2)NC(=O)C3=CC(=CC(=N3)C(=O)NC4=NC5=CC=CC=C5C(=C4)OCCN)OCCN)OCCN

> <PUBCHEM_OPENEYE_ISO_SMILES>
C1=CC=C2C(=C1)C(=CC(=N2)NC(=O)C3=CC(=CC(=N3)C(=O)NC4=NC5=CC=CC=C5C(=C4)OCCN)OCCN)OCCN

> <PUBCHEM_CACTVS_TPSA>
203

> <PUBCHEM_MONOISOTOPIC_WEIGHT>
596.249566

> <PUBCHEM_TOTAL_CHARGE>
0

> <PUBCHEM_HEAVY_ATOM_COUNT>
44

> <PUBCHEM_ATOM_DEF_STEREO_COUNT>
0

> <PUBCHEM_ATOM_UDEF_STEREO_COUNT>
0

> <PUBCHEM_BOND_DEF_STEREO_COUNT>
0

> <PUBCHEM_BOND_UDEF_STEREO_COUNT>
0

> <PUBCHEM_ISOTOPIC_ATOM_COUNT>
0

> <PUBCHEM_COMPONENT_COUNT>
1

> <PUBCHEM_CACTVS_TAUTO_COUNT>
-1

> <PUBCHEM_COORDINATE_TYPE>
1
5
255

> <PUBCHEM_BONDANNOTATIONS>
10  28  8
10  29  8
14  16  8
14  18  8
14  24  8
15  17  8
15  19  8
15  25  8
16  22  8
17  23  8
18  26  8
19  27  8
20  22  8
21  23  8
24  33  8
25  34  8
26  37  8
27  38  8
28  39  8
29  40  8
30  39  8
30  40  8
33  37  8
34  38  8
6  18  8
6  20  8
7  19  8
7  21  8

$$$$
24180719
  -OEChem-02182015172D

 41 43  0     0  0  0  0  0  0999 V2000
    2.0000   -1.1219    0.0000 Cl  0  0  0  0  0  0  0  0  0  0  0  0
    9.4118    2.1530    0.0000 S   0  0  0  0  0  0  0  0  0  0  0  0
    6.4763    1.5344    0.0000 F   0  0  0  0  0  0  0  0  0  0  0  0
    7.1906   -1.8553    0.0000 F   0  0  0  0  0  0  0  0  0  0  0  0
    9.2056    3.1315    0.0000 O   0  0  0  0  0  0  0  0  0  0  0  0
    9.6180    1.1745    0.0000 O   0  0  0  0  0  0  0  0  0  0  0  0
    5.1871    0.3776    0.0000 O   0  0  0  0  0  0  0  0  0  0  0  0
    8.4333    1.9468    0.0000 N   0  0  0  0  0  0  0  0  0  0  0  0
    5.5443   -2.9267    0.0000 N   0  0  0  0  0  0  0  0  0  0  0  0
    3.7320   -3.1219    0.0000 N   0  0  0  0  0  0  0  0  0  0  0  0
   10.3903    2.3592    0.0000 C   0  0  0  0  0  0  0  0  0  0  0  0
   10.7010    3.3098    0.0000 C   0  0  0  0  0  0  0  0  0  0  0  0
    8.1226    0.9963    0.0000 C   0  0  0  0  0  0  0  0  0  0  0  0
    5.5443   -1.3172    0.0000 C   0  0  0  0  0  0  0  0  0  0  0  0
    6.8335   -0.1605    0.0000 C   0  0  0  0  0  0  0  0  0  0  0  0
    4.5981   -1.6219    0.0000 C   0  0  0  0  0  0  0  0  0  0  0  0
    7.1441    0.7901    0.0000 C   0  0  0  0  0  0  0  0  0  0  0  0
    5.8550   -0.3667    0.0000 C   0  0  0  0  0  0  0  0  0  0  0  0
    4.5981   -2.6219    0.0000 C   0  0  0  0  0  0  0  0  0  0  0  0
    6.1279   -2.1219    0.0000 C   0  0  0  0  0  0  0  0  0  0  0  0
    8.7905    0.2520    0.0000 C   0  0  0  0  0  0  0  0  0  0  0  0
   11.6795    3.5160    0.0000 C   0  0  0  0  0  0  0  0  0  0  0  0
    7.5013   -0.9048    0.0000 C   0  0  0  0  0  0  0  0  0  0  0  0
    8.4798   -0.6985    0.0000 C   0  0  0  0  0  0  0  0  0  0  0  0
    3.7320   -1.1219    0.0000 C   0  0  0  0  0  0  0  0  0  0  0  0
    2.8660   -1.6219    0.0000 C   0  0  0  0  0  0  0  0  0  0  0  0
    2.8660   -2.6219    0.0000 C   0  0  0  0  0  0  0  0  0  0  0  0
   10.4109    1.7396    0.0000 H   0  0  0  0  0  0  0  0  0  0  0  0
   11.0041    2.2719    0.0000 H   0  0  0  0  0  0  0  0  0  0  0  0
   10.6804    3.9294    0.0000 H   0  0  0  0  0  0  0  0  0  0  0  0
   10.0872    3.3971    0.0000 H   0  0  0  0  0  0  0  0  0  0  0  0
    8.0192    2.4083    0.0000 H   0  0  0  0  0  0  0  0  0  0  0  0
    6.7479   -2.1219    0.0000 H   0  0  0  0  0  0  0  0  0  0  0  0
    9.3972    0.3798    0.0000 H   0  0  0  0  0  0  0  0  0  0  0  0
   11.8073    2.9093    0.0000 H   0  0  0  0  0  0  0  0  0  0  0  0
   12.2861    3.6438    0.0000 H   0  0  0  0  0  0  0  0  0  0  0  0
   11.5516    4.1226    0.0000 H   0  0  0  0  0  0  0  0  0  0  0  0
    5.7369   -3.5160    0.0000 H   0  0  0  0  0  0  0  0  0  0  0  0
    8.8939   -1.1600    0.0000 H   0  0  0  0  0  0  0  0  0  0  0  0
    3.7320   -0.5019    0.0000 H   0  0  0  0  0  0  0  0  0  0  0  0
    2.3291   -2.9319    0.0000 H   0  0  0  0  0  0  0  0  0  0  0  0
  1 26  1  0  0  0  0
  2  5  2  0  0  0  0
  2  6  2  0  0  0  0
  2  8  1  0  0  0  0
  2 11  1  0  0  0  0
  3 17  1  0  0  0  0
  4 23  1  0  0  0  0
  7 18  2  0  0  0  0
  8 13  1  0  0  0  0
  8 32  1  0  0  0  0
  9 19  1  0  0  0  0
  9 20  1  0  0  0  0
  9 38  1  0  0  0  0
 10 19  1  0  0  0  0
 10 27  2  0  0  0  0
 11 12  1  0  0  0  0
 11 28  1  0  0  0  0
 11 29  1  0  0  0  0
 12 22  1  0  0  0  0
 12 30  1  0  0  0  0
 12 31  1  0  0  0  0
 13 17  2  0  0  0  0
 13 21  1  0  0  0  0
 14 16  1  0  0  0  0
 14 18  1  0  0  0  0
 14 20  2  0  0  0  0
 15 17  1  0  0  0  0
 15 18  1  0  0  0  0
 15 23  2  0  0  0  0
 16 19  2  0  0  0  0
 16 25  1  0  0  0  0
 20 33  1  0  0  0  0
 21 24  2  0  0  0  0
 21 34  1  0  0  0  0
 22 35  1  0  0  0  0
 22 36  1  0  0  0  0
 22 37  1  0  0  0  0
 23 24  1  0  0  0  0
 24 39  1  0  0  0  0
 25 26  2  0  0  0  0
 25 40  1  0  0  0  0
 26 27  1  0  0  0  0
 27 41  1  0  0  0  0
M  END
> <PUBCHEM_COMPOUND_CID>
24180719

> <PUBCHEM_COMPOUND_CANONICALIZED>
1

> <PUBCHEM_CACTVS_COMPLEXITY>
648

> <PUBCHEM_CACTVS_HBOND_ACCEPTOR>
7

> <PUBCHEM_CACTVS_HBOND_DONOR>
2

> <PUBCHEM_CACTVS_ROTATABLE_BOND>
6

> <PUBCHEM_CACTVS_SUBSKEYS>
AAADccB7MYBEAAAAAAAAAAAAAAAAAWAAAAA8QAAAAAAAAFgB/AAAHwYQQAAADA7F2yy/8N7JkAKoArZ3ZHDCgCm1B6AJ2aEoZtiIKPrBn5HEIYhokALIyecciMCOgAAAQAAAAAAAAACAAAAAAAAAAAAAAA==

> <PUBCHEM_IUPAC_OPENEYE_NAME>
N-[3-(5-chloro-1H-pyrrolo[2,3-b]pyridine-3-carbonyl)-2,4-difluoro-phenyl]propane-1-sulfonamide

> <PUBCHEM_IUPAC_CAS_NAME>
N-[3-[(5-chloro-1H-pyrrolo[2,3-b]pyridin-3-yl)-oxomethyl]-2,4-difluorophenyl]-1-propanesulfonamide

> <PUBCHEM_IUPAC_NAME_MARKUP>
<I>N</I>-[3-(5-chloro-1<I>H</I>-pyrrolo[2,3-b]pyridine-3-carbonyl)-2,4-difluorophenyl]propane-1-sulfonamide

> <PUBCHEM_IUPAC_NAME>
N-[3-(5-chloro-1H-pyrrolo[2,3-b]pyridine-3-carbonyl)-2,4-difluorophenyl]propane-1-sulfonamide

> <PUBCHEM_IUPAC_SYSTEMATIC_NAME>
N-[3-[(5-chloranyl-1H-pyrrolo[2,3-b]pyridin-3-yl)carbonyl]-2,4-bis(fluoranyl)phenyl]propane-1-sulfonamide

> <PUBCHEM_IUPAC_TRADITIONAL_NAME>
N-[3-(5-chloro-1H-pyrrolo[2,3-b]pyridine-3-carbonyl)-2,4-difluoro-phenyl]propane-1-sulfonamide

> <PUBCHEM_IUPAC_INCHI>
InChI=1S/C17H14ClF2N3O3S/c1-2-5-27(25,26)23-13-4-3-12(19)14(15(13)20)16(24)11-8-22-17-10(11)6-9(18)7-21-17/h3-4,6-8,23H,2,5H2,1H3,(H,21,22)

> <PUBCHEM_IUPAC_INCHIKEY>
YZDJQTHVDDOVHR-UHFFFAOYSA-N

> <PUBCHEM_XLOGP3_AA>
3.3

> <PUBCHEM_EXACT_MASS>
413.041246

> <PUBCHEM_MOLECULAR_FORMULA>
C17H14ClF2N3O3S

> <PUBCHEM_MOLECULAR_WEIGHT>
413.8

> <PUBCHEM_OPENEYE_CAN_SMILES>
CCCS(=O)(=O)NC1=C(C(=C(C=C1)F)C(=O)C2=CNC3=C2C=C(C=N3)Cl)F

> <PUBCHEM_OPENEYE_ISO_SMILES>
CCCS(=O)(=O)NC1=C(C(=C(C=C1)F)C(=O)C2=CNC3=C2C=C(C=N3)Cl)F

> <PUBCHEM_CACTVS_TPSA>
100

> <PUBCHEM_MONOISOTOPIC_WEIGHT>
413.041246

> <PUBCHEM_TOTAL_CHARGE>
0

> <PUBCHEM_HEAVY_ATOM_COUNT>
27

> <PUBCHEM_ATOM_DEF_STEREO_COUNT>
0

> <PUBCHEM_ATOM_UDEF_STEREO_COUNT>
0

> <PUBCHEM_BOND_DEF_STEREO_COUNT>
0

> <PUBCHEM_BOND_UDEF_STEREO_COUNT>
0

> <PUBCHEM_ISOTOPIC_ATOM_COUNT>
0

> <PUBCHEM_COMPONENT_COUNT>
1

> <PUBCHEM_CACTVS_TAUTO_COUNT>
-1

> <PUBCHEM_COORDINATE_TYPE>
1
5
255

> <PUBCHEM_BONDANNOTATIONS>
10  19  8
10  27  8
13  17  8
13  21  8
14  16  8
14  20  8
15  17  8
15  23  8
16  19  8
16  25  8
21  24  8
23  24  8
25  26  8
26  27  8
9  19  8
9  20  8

$$$$
52918385
  -OEChem-02182015172D

 31 32  0     1  0  0  0  0  0999 V2000
    5.3968    1.4792    0.0000 O   0  0  0  0  0  0  0  0  0  0  0  0
    3.8236    1.6863    0.0000 O   0  0  0  0  0  0  0  0  0  0  0  0
    2.5989    0.4615    0.0000 O   0  0  0  0  0  0  0  0  0  0  0  0
    5.2497   -1.8013    0.0000 N   0  0  0  0  0  0  0  0  0  0  0  0
    4.2719    0.0132    0.0000 C   0  0  3  0  0  0  0  0  0  0  0  0
    5.5085   -0.8354    0.0000 C   0  0  0  0  0  0  0  0  0  0  0  0
    3.5350   -1.4537    0.0000 C   0  0  0  0  0  0  0  0  0  0  0  0
    6.9075   -1.3442    0.0000 C   0  0  0  0  0  0  0  0  0  0  0  0
    3.8770   -2.3934    0.0000 C   0  0  0  0  0  0  0  0  0  0  0  0
    6.6486   -2.3102    0.0000 C   0  0  0  0  0  0  0  0  0  0  0  0
    5.1379    0.5132    0.0000 C   0  0  0  0  0  0  0  0  0  0  0  0
    3.5648    0.7203    0.0000 C   0  0  0  0  0  0  0  0  0  0  0  0
    3.3060   -0.2456    0.0000 C   0  0  0  0  0  0  0  0  0  0  0  0
    3.1165    2.3934    0.0000 C   0  0  0  0  0  0  0  0  0  0  0  0
    5.4945   -1.4553    0.0000 H   0  0  0  0  0  0  0  0  0  0  0  0
    3.3407   -0.8649    0.0000 H   0  0  0  0  0  0  0  0  0  0  0  0
    2.9492   -1.6569    0.0000 H   0  0  0  0  0  0  0  0  0  0  0  0
    7.5014   -1.5220    0.0000 H   0  0  0  0  0  0  0  0  0  0  0  0
    7.1024   -0.7557    0.0000 H   0  0  0  0  0  0  0  0  0  0  0  0
    3.2986   -2.6167    0.0000 H   0  0  0  0  0  0  0  0  0  0  0  0
    4.1115   -2.9673    0.0000 H   0  0  0  0  0  0  0  0  0  0  0  0
    6.4537   -2.8987    0.0000 H   0  0  0  0  0  0  0  0  0  0  0  0
    7.2426   -2.4879    0.0000 H   0  0  0  0  0  0  0  0  0  0  0  0
    3.0029    0.9824    0.0000 H   0  0  0  0  0  0  0  0  0  0  0  0
    3.2092    0.2125    0.0000 H   0  0  0  0  0  0  0  0  0  0  0  0
    2.7981   -0.6012    0.0000 H   0  0  0  0  0  0  0  0  0  0  0  0
    3.5680   -0.8075    0.0000 H   0  0  0  0  0  0  0  0  0  0  0  0
    2.0000    0.3010    0.0000 H   0  0  0  0  0  0  0  0  0  0  0  0
    3.5549    2.8318    0.0000 H   0  0  0  0  0  0  0  0  0  0  0  0
    2.6781    2.8318    0.0000 H   0  0  0  0  0  0  0  0  0  0  0  0
    2.6781    1.9550    0.0000 H   0  0  0  0  0  0  0  0  0  0  0  0
  1 11  2  0  0  0  0
  2 12  1  0  0  0  0
  2 14  1  0  0  0  0
  3 13  1  0  0  0  0
  3 28  1  0  0  0  0
  4  5  1  0  0  0  0
  4  9  1  0  0  0  0
  4 10  1  0  0  0  0
  5 11  1  0  0  0  0
  5 12  1  0  0  0  0
  5 13  1  0  0  0  0
  6  7  1  0  0  0  0
  6  8  1  0  0  0  0
  6 11  1  0  0  0  0
  6 15  1  0  0  0  0
  7  9  1  0  0  0  0
  7 16  1  0  0  0  0
  7 17  1  0  0  0  0
  8 10  1  0  0  0  0
  8 18  1  0  0  0  0
  8 19  1  0  0  0  0
  9 20  1  0  0  0  0
  9 21  1  0  0  0  0
 10 22  1  0  0  0  0
 10 23  1  0  0  0  0
 12 24  1  0  0  0  0
 12 25  1  0  0  0  0
 13 26  1  0  0  0  0
 13 27  1  0  0  0  0
 14 29  1  0  0  0  0
 14 30  1  0  0  0  0
 14 31  1  0  0  0  0
M  END
> <PUBCHEM_COMPOUND_CID>
52918385

> <PUBCHEM_COMPOUND_CANONICALIZED>
1

> <PUBCHEM_CACTVS_COMPLEXITY>
236

> <PUBCHEM_CACTVS_HBOND_ACCEPTOR>
4

> <PUBCHEM_CACTVS_HBOND_DONOR>
1

> <PUBCHEM_CACTVS_ROTATABLE_BOND>
3

> <PUBCHEM_CACTVS_SUBSKEYS>
AAADceByMAAAAAAAAAAAAAAAAAAAAAAAAAAsWLAAAAAAAAAAAAAAHgAACAAADYzhgAYCAAMABgAIAIAQAAAAAAAAAAAAAAGIAAACEBYAgCAFQAAFIACQAAGUQAAOAAAAAAAAAAAAAAAAAAAAAAAAAAAAAA==

> <PUBCHEM_IUPAC_OPENEYE_NAME>
2-(hydroxymethyl)-2-(methoxymethyl)quinuclidin-3-one

> <PUBCHEM_IUPAC_CAS_NAME>
2-(hydroxymethyl)-2-(methoxymethyl)-1-azabicyclo[2.2.2]octan-3-one

> <PUBCHEM_IUPAC_NAME_MARKUP>
2-(hydroxymethyl)-2-(methoxymethyl)-1-azabicyclo[2.2.2]octan-3-one

> <PUBCHEM_IUPAC_NAME>
2-(hydroxymethyl)-2-(methoxymethyl)-1-azabicyclo[2.2.2]octan-3-one

> <PUBCHEM_IUPAC_SYSTEMATIC_NAME>
2-(hydroxymethyl)-2-(methoxymethyl)-1-azabicyclo[2.2.2]octan-3-one

> <PUBCHEM_IUPAC_TRADITIONAL_NAME>
2-(methoxymethyl)-2-methylol-quinuclidin-3-one

> <PUBCHEM_IUPAC_INCHI>
InChI=1S/C10H17NO3/c1-14-7-10(6-12)9(13)8-2-4-11(10)5-3-8/h8,12H,2-7H2,1H3

> <PUBCHEM_IUPAC_INCHIKEY>
BGBNULCRKBVAKL-UHFFFAOYSA-N

> <PUBCHEM_XLOGP3_AA>
-0.1

> <PUBCHEM_EXACT_MASS>
199.120843

> <PUBCHEM_MOLECULAR_FORMULA>
C10H17NO3

> <PUBCHEM_MOLECULAR_WEIGHT>
199.25

> <PUBCHEM_OPENEYE_CAN_SMILES>
COCC1(C(=O)C2CCN1CC2)CO

> <PUBCHEM_OPENEYE_ISO_SMILES>
COCC1(C(=O)C2CCN1CC2)CO

> <PUBCHEM_CACTVS_TPSA>
49.8

> <PUBCHEM_MONOISOTOPIC_WEIGHT>
199.120843

> <PUBCHEM_TOTAL_CHARGE>
0

> <PUBCHEM_HEAVY_ATOM_COUNT>
14

> <PUBCHEM_ATOM_DEF_STEREO_COUNT>
0

> <PUBCHEM_ATOM_UDEF_STEREO_COUNT>
1

> <PUBCHEM_BOND_DEF_STEREO_COUNT>
0

> <PUBCHEM_BOND_UDEF_STEREO_COUNT>
0

> <PUBCHEM_ISOTOPIC_ATOM_COUNT>
0

> <PUBCHEM_COMPONENT_COUNT>
1

> <PUBCHEM_CACTVS_TAUTO_COUNT>
-1

> <PUBCHEM_COORDINATE_TYPE>
1
5
255

> <PUBCHEM_BONDANNOTATIONS>
5  13  3

$$$$
24958200
  -OEChem-02182015172D

 44 47  0     1  0  0  0  0  0999 V2000
    4.2690   -1.6415    0.0000 O   0  0  0  0  0  0  0  0  0  0  0  0
   11.2988    1.7245    0.0000 N   0  0  0  0  0  0  0  0  0  0  0  0
    5.7988    0.8585    0.0000 N   0  0  0  0  0  0  0  0  0  0  0  0
    5.2152    0.0538    0.0000 N   0  0  0  0  0  0  0  0  0  0  0  0
    2.5369   -1.6415    0.0000 N   0  0  0  0  0  0  0  0  0  0  0  0
    9.7988    0.8585    0.0000 C   0  0  2  0  0  0  0  0  0  0  0  0
   10.2988   -0.0075    0.0000 C   0  0  0  0  0  0  0  0  0  0  0  0
   10.2988    1.7245    0.0000 C   0  0  0  0  0  0  0  0  0  0  0  0
   11.2988   -0.0075    0.0000 C   0  0  0  0  0  0  0  0  0  0  0  0
   11.7988    0.8585    0.0000 C   0  0  0  0  0  0  0  0  0  0  0  0
    8.7988    0.8585    0.0000 C   0  0  0  0  0  0  0  0  0  0  0  0
    8.2988   -0.0075    0.0000 C   0  0  0  0  0  0  0  0  0  0  0  0
    8.2988    1.7245    0.0000 C   0  0  0  0  0  0  0  0  0  0  0  0
    6.7988    0.8585    0.0000 C   0  0  0  0  0  0  0  0  0  0  0  0
    7.2988   -0.0075    0.0000 C   0  0  0  0  0  0  0  0  0  0  0  0
    7.2988    1.7245    0.0000 C   0  0  0  0  0  0  0  0  0  0  0  0
    4.2690    1.3585    0.0000 C   0  0  0  0  0  0  0  0  0  0  0  0
    5.2152    1.6632    0.0000 C   0  0  0  0  0  0  0  0  0  0  0  0
    4.2690    0.3585    0.0000 C   0  0  0  0  0  0  0  0  0  0  0  0
    3.4030   -0.1415    0.0000 C   0  0  0  0  0  0  0  0  0  0  0  0
    3.4030    1.8585    0.0000 C   0  0  0  0  0  0  0  0  0  0  0  0
    2.5369    0.3585    0.0000 C   0  0  0  0  0  0  0  0  0  0  0  0
    2.5369    1.3585    0.0000 C   0  0  0  0  0  0  0  0  0  0  0  0
    3.4030   -1.1415    0.0000 C   0  0  0  0  0  0  0  0  0  0  0  0
    9.4888    0.3216    0.0000 H   0  0  0  0  0  0  0  0  0  0  0  0
    9.7162   -0.2196    0.0000 H   0  0  0  0  0  0  0  0  0  0  0  0
   10.4065   -0.6181    0.0000 H   0  0  0  0  0  0  0  0  0  0  0  0
   10.4065    2.3351    0.0000 H   0  0  0  0  0  0  0  0  0  0  0  0
    9.7162    1.9366    0.0000 H   0  0  0  0  0  0  0  0  0  0  0  0
   11.1912   -0.6181    0.0000 H   0  0  0  0  0  0  0  0  0  0  0  0
   11.8814   -0.2196    0.0000 H   0  0  0  0  0  0  0  0  0  0  0  0
   12.2738    0.4600    0.0000 H   0  0  0  0  0  0  0  0  0  0  0  0
   12.2738    1.2570    0.0000 H   0  0  0  0  0  0  0  0  0  0  0  0
   11.6088    2.2615    0.0000 H   0  0  0  0  0  0  0  0  0  0  0  0
    8.6088   -0.5444    0.0000 H   0  0  0  0  0  0  0  0  0  0  0  0
    8.6088    2.2615    0.0000 H   0  0  0  0  0  0  0  0  0  0  0  0
    6.9888   -0.5444    0.0000 H   0  0  0  0  0  0  0  0  0  0  0  0
    6.9888    2.2615    0.0000 H   0  0  0  0  0  0  0  0  0  0  0  0
    5.4078    2.2526    0.0000 H   0  0  0  0  0  0  0  0  0  0  0  0
    3.4030    2.4785    0.0000 H   0  0  0  0  0  0  0  0  0  0  0  0
    2.0000    0.0485    0.0000 H   0  0  0  0  0  0  0  0  0  0  0  0
    2.0000    1.6685    0.0000 H   0  0  0  0  0  0  0  0  0  0  0  0
    2.5369   -2.2615    0.0000 H   0  0  0  0  0  0  0  0  0  0  0  0
    2.0000   -1.3315    0.0000 H   0  0  0  0  0  0  0  0  0  0  0  0
  1 24  2  0  0  0  0
  2  8  1  0  0  0  0
  2 10  1  0  0  0  0
  2 34  1  0  0  0  0
  3  4  1  0  0  0  0
  3 14  1  0  0  0  0
  3 18  1  0  0  0  0
  4 19  2  0  0  0  0
  5 24  1  0  0  0  0
  5 43  1  0  0  0  0
  5 44  1  0  0  0  0
  6  7  1  0  0  0  0
  6  8  1  0  0  0  0
  6 11  1  1  0  0  0
  6 25  1  0  0  0  0
  7  9  1  0  0  0  0
  7 26  1  0  0  0  0
  7 27  1  0  0  0  0
  8 28  1  0  0  0  0
  8 29  1  0  0  0  0
  9 10  1  0  0  0  0
  9 30  1  0  0  0  0
  9 31  1  0  0  0  0
 10 32  1  0  0  0  0
 10 33  1  0  0  0  0
 11 12  2  0  0  0  0
 11 13  1  0  0  0  0
 12 15  1  0  0  0  0
 12 35  1  0  0  0  0
 13 16  2  0  0  0  0
 13 36  1  0  0  0  0
 14 15  2  0  0  0  0
 14 16  1  0  0  0  0
 15 37  1  0  0  0  0
 16 38  1  0  0  0  0
 17 18  2  0  0  0  0
 17 19  1  0  0  0  0
 17 21  1  0  0  0  0
 18 39  1  0  0  0  0
 19 20  1  0  0  0  0
 20 22  2  0  0  0  0
 20 24  1  0  0  0  0
 21 23  2  0  0  0  0
 21 40  1  0  0  0  0
 22 23  1  0  0  0  0
 22 41  1  0  0  0  0
 23 42  1  0  0  0  0
M  END
> <PUBCHEM_COMPOUND_CID>
24958200

> <PUBCHEM_COMPOUND_CANONICALIZED>
1

> <PUBCHEM_CACTVS_COMPLEXITY>
449

> <PUBCHEM_CACTVS_HBOND_ACCEPTOR>
3

> <PUBCHEM_CACTVS_HBOND_DONOR>
2

> <PUBCHEM_CACTVS_ROTATABLE_BOND>
3

> <PUBCHEM_CACTVS_SUBSKEYS>
AAADceB7oAAAAAAAAAAAAAAAAAAAAWAAAAA8YIAAAAAAAFgB9AAAHgAYAAAADQjBngQ8wPLIAACqAzV3VACSBCA1ggAYmKEoZNgIIPrA1dGEpYhgmADIyccYicCOiAACAAACAAAQAAQAAAQAAAAAAAAAAA==

> <PUBCHEM_IUPAC_OPENEYE_NAME>
2-[4-[(3S)-3-piperidyl]phenyl]indazole-7-carboxamide

> <PUBCHEM_IUPAC_CAS_NAME>
2-[4-[(3S)-3-piperidinyl]phenyl]-7-indazolecarboxamide

> <PUBCHEM_IUPAC_NAME_MARKUP>
2-[4-[(3<I>S</I>)-piperidin-3-yl]phenyl]indazole-7-carboxamide

> <PUBCHEM_IUPAC_NAME>
2-[4-[(3S)-piperidin-3-yl]phenyl]indazole-7-carboxamide

> <PUBCHEM_IUPAC_SYSTEMATIC_NAME>
2-[4-[(3S)-piperidin-3-yl]phenyl]indazole-7-carboxamide

> <PUBCHEM_IUPAC_TRADITIONAL_NAME>
2-[4-[(3S)-3-piperidyl]phenyl]indazole-7-carboxamide

> <PUBCHEM_IUPAC_INCHI>
InChI=1S/C19H20N4O/c20-19(24)17-5-1-3-15-12-23(22-18(15)17)16-8-6-13(7-9-16)14-4-2-10-21-11-14/h1,3,5-9,12,14,21H,2,4,10-11H2,(H2,20,24)/t14-/m1/s1

> <PUBCHEM_IUPAC_INCHIKEY>
PCHKPVIQAHNQLW-CQSZACIVSA-N

> <PUBCHEM_XLOGP3_AA>
2.2

> <PUBCHEM_EXACT_MASS>
320.163711

> <PUBCHEM_MOLECULAR_FORMULA>
C19H20N4O

> <PUBCHEM_MOLECULAR_WEIGHT>
320.4

> <PUBCHEM_OPENEYE_CAN_SMILES>
C1CC(CNC1)C2=CC=C(C=C2)N3C=C4C=CC=C(C4=N3)C(=O)N

> <PUBCHEM_OPENEYE_ISO_SMILES>
C1C[C@H](CNC1)C2=CC=C(C=C2)N3C=C4C=CC=C(C4=N3)C(=O)N

> <PUBCHEM_CACTVS_TPSA>
72.9

> <PUBCHEM_MONOISOTOPIC_WEIGHT>
320.163711

> <PUBCHEM_TOTAL_CHARGE>
0

> <PUBCHEM_HEAVY_ATOM_COUNT>
24

> <PUBCHEM_ATOM_DEF_STEREO_COUNT>
1

> <PUBCHEM_ATOM_UDEF_STEREO_COUNT>
0

> <PUBCHEM_BOND_DEF_STEREO_COUNT>
0

> <PUBCHEM_BOND_UDEF_STEREO_COUNT>
0

> <PUBCHEM_ISOTOPIC_ATOM_COUNT>
0

> <PUBCHEM_COMPONENT_COUNT>
1

> <PUBCHEM_CACTVS_TAUTO_COUNT>
-1

> <PUBCHEM_COORDINATE_TYPE>
1
5
255

> <PUBCHEM_BONDANNOTATIONS>
11  12  8
11  13  8
12  15  8
13  16  8
14  15  8
14  16  8
17  18  8
17  19  8
17  21  8
19  20  8
20  22  8
21  23  8
22  23  8
3  18  8
3  4  8
4  19  8
6  11  5

$$$$
25099184
  -OEChem-02182015172D

 42 44  0     1  0  0  0  0  0999 V2000
    9.7942    2.4239    0.0000 F   0  0  0  0  0  0  0  0  0  0  0  0
    2.0000   -1.0761    0.0000 F   0  0  0  0  0  0  0  0  0  0  0  0
    6.3301    0.4239    0.0000 N   0  0  0  0  0  0  0  0  0  0  0  0
    8.0622    0.4239    0.0000 N   0  0  0  0  0  0  0  0  0  0  0  0
    9.7942    0.4239    0.0000 N   0  0  0  0  0  0  0  0  0  0  0  0
    9.2942   -2.1149    0.0000 N   0  0  0  0  0  0  0  0  0  0  0  0
    8.9852   -1.1639    0.0000 N   0  0  0  0  0  0  0  0  0  0  0  0
    5.4641    2.9239    0.0000 N   0  0  0  0  0  0  0  0  0  0  0  0
    5.4641    0.9239    0.0000 C   0  0  2  0  0  0  0  0  0  0  0  0
    4.5981    0.4239    0.0000 C   0  0  0  0  0  0  0  0  0  0  0  0
    5.4641    1.9239    0.0000 C   0  0  0  0  0  0  0  0  0  0  0  0
    7.1962    0.9239    0.0000 C   0  0  0  0  0  0  0  0  0  0  0  0
    4.5981   -0.5761    0.0000 C   0  0  0  0  0  0  0  0  0  0  0  0
    3.7320    0.9239    0.0000 C   0  0  0  0  0  0  0  0  0  0  0  0
    7.1962    1.9239    0.0000 C   0  0  0  0  0  0  0  0  0  0  0  0
    8.9282    0.9239    0.0000 C   0  0  0  0  0  0  0  0  0  0  0  0
    3.7320   -1.0761    0.0000 C   0  0  0  0  0  0  0  0  0  0  0  0
    2.8660    0.4239    0.0000 C   0  0  0  0  0  0  0  0  0  0  0  0
    8.0622    2.4239    0.0000 C   0  0  0  0  0  0  0  0  0  0  0  0
    8.9282    1.9239    0.0000 C   0  0  0  0  0  0  0  0  0  0  0  0
    9.7942   -0.5761    0.0000 C   0  0  0  0  0  0  0  0  0  0  0  0
    2.8660   -0.5761    0.0000 C   0  0  0  0  0  0  0  0  0  0  0  0
   10.2942   -2.1149    0.0000 C   0  0  0  0  0  0  0  0  0  0  0  0
   10.6032   -1.1639    0.0000 C   0  0  0  0  0  0  0  0  0  0  0  0
   10.8820   -2.9239    0.0000 C   0  0  0  0  0  0  0  0  0  0  0  0
    6.3301    2.4239    0.0000 C   0  0  0  0  0  0  0  0  0  0  0  0
    5.4641    0.3039    0.0000 H   0  0  0  0  0  0  0  0  0  0  0  0
    6.3301   -0.1961    0.0000 H   0  0  0  0  0  0  0  0  0  0  0  0
    6.0841    1.9239    0.0000 H   0  0  0  0  0  0  0  0  0  0  0  0
    5.4641    2.5439    0.0000 H   0  0  0  0  0  0  0  0  0  0  0  0
    4.8441    1.9239    0.0000 H   0  0  0  0  0  0  0  0  0  0  0  0
    5.1350   -0.8861    0.0000 H   0  0  0  0  0  0  0  0  0  0  0  0
    3.7320    1.5439    0.0000 H   0  0  0  0  0  0  0  0  0  0  0  0
    3.7320   -1.6961    0.0000 H   0  0  0  0  0  0  0  0  0  0  0  0
    2.3291    0.7339    0.0000 H   0  0  0  0  0  0  0  0  0  0  0  0
    8.0622    3.0439    0.0000 H   0  0  0  0  0  0  0  0  0  0  0  0
   10.3312    0.7339    0.0000 H   0  0  0  0  0  0  0  0  0  0  0  0
   11.1929   -0.9723    0.0000 H   0  0  0  0  0  0  0  0  0  0  0  0
    8.9298   -2.6165    0.0000 H   0  0  0  0  0  0  0  0  0  0  0  0
   10.3804   -3.2884    0.0000 H   0  0  0  0  0  0  0  0  0  0  0  0
   11.2464   -3.4255    0.0000 H   0  0  0  0  0  0  0  0  0  0  0  0
   11.3836   -2.5595    0.0000 H   0  0  0  0  0  0  0  0  0  0  0  0
  1 20  1  0  0  0  0
  2 22  1  0  0  0  0
  9  3  1  6  0  0  0
  3 12  1  0  0  0  0
  3 28  1  0  0  0  0
  4 12  2  0  0  0  0
  4 16  1  0  0  0  0
  5 16  1  0  0  0  0
  5 21  1  0  0  0  0
  5 37  1  0  0  0  0
  6  7  1  0  0  0  0
  6 23  1  0  0  0  0
  6 39  1  0  0  0  0
  7 21  2  0  0  0  0
  8 26  3  0  0  0  0
  9 10  1  0  0  0  0
  9 11  1  0  0  0  0
  9 27  1  0  0  0  0
 10 13  2  0  0  0  0
 10 14  1  0  0  0  0
 11 29  1  0  0  0  0
 11 30  1  0  0  0  0
 11 31  1  0  0  0  0
 12 15  1  0  0  0  0
 13 17  1  0  0  0  0
 13 32  1  0  0  0  0
 14 18  2  0  0  0  0
 14 33  1  0  0  0  0
 15 19  2  0  0  0  0
 15 26  1  0  0  0  0
 16 20  2  0  0  0  0
 17 22  2  0  0  0  0
 17 34  1  0  0  0  0
 18 22  1  0  0  0  0
 18 35  1  0  0  0  0
 19 20  1  0  0  0  0
 19 36  1  0  0  0  0
 21 24  1  0  0  0  0
 23 24  2  0  0  0  0
 23 25  1  0  0  0  0
 24 38  1  0  0  0  0
 25 40  1  0  0  0  0
 25 41  1  0  0  0  0
 25 42  1  0  0  0  0
M  END
> <PUBCHEM_COMPOUND_CID>
25099184

> <PUBCHEM_COMPOUND_CANONICALIZED>
1

> <PUBCHEM_CACTVS_COMPLEXITY>
503

> <PUBCHEM_CACTVS_HBOND_ACCEPTOR>
7

> <PUBCHEM_CACTVS_HBOND_DONOR>
3

> <PUBCHEM_CACTVS_ROTATABLE_BOND>
5

> <PUBCHEM_CACTVS_SUBSKEYS>
AAADceB7gYAAAAAAAAAAAAAAAAAAAWAAAAA8QAAAAAAAAAAB8AAAHQAYAAAADCjBHgwzsJLrEACyByZiZACyhCshAiAduaA4ZJiIoOLA2dGEpAh4mALIyC8QgIAOAAAAAAAAAAAAAAAAAAAAAAAAAAAAAA==

> <PUBCHEM_IUPAC_OPENEYE_NAME>
5-fluoro-2-[[(1S)-1-(4-fluorophenyl)ethyl]amino]-6-[(5-methyl-1H-pyrazol-3-yl)amino]pyridine-3-carbonitrile

> <PUBCHEM_IUPAC_CAS_NAME>
5-fluoro-2-[[(1S)-1-(4-fluorophenyl)ethyl]amino]-6-[(5-methyl-1H-pyrazol-3-yl)amino]-3-pyridinecarbonitrile

> <PUBCHEM_IUPAC_NAME_MARKUP>
5-fluoro-2-[[(1<I>S</I>)-1-(4-fluorophenyl)ethyl]amino]-6-[(5-methyl-1<I>H</I>-pyrazol-3-yl)amino]pyridine-3-carbonitrile

> <PUBCHEM_IUPAC_NAME>
5-fluoro-2-[[(1S)-1-(4-fluorophenyl)ethyl]amino]-6-[(5-methyl-1H-pyrazol-3-yl)amino]pyridine-3-carbonitrile

> <PUBCHEM_IUPAC_SYSTEMATIC_NAME>
5-fluoranyl-2-[[(1S)-1-(4-fluorophenyl)ethyl]amino]-6-[(5-methyl-1H-pyrazol-3-yl)amino]pyridine-3-carbonitrile

> <PUBCHEM_IUPAC_TRADITIONAL_NAME>
5-fluoro-2-[[(1S)-1-(4-fluorophenyl)ethyl]amino]-6-[(5-methyl-1H-pyrazol-3-yl)amino]nicotinonitrile

> <PUBCHEM_IUPAC_INCHI>
InChI=1S/C18H16F2N6/c1-10-7-16(26-25-10)23-18-15(20)8-13(9-21)17(24-18)22-11(2)12-3-5-14(19)6-4-12/h3-8,11H,1-2H3,(H3,22,23,24,25,26)/t11-/m0/s1

> <PUBCHEM_IUPAC_INCHIKEY>
SUNXHXDJOIXABJ-NSHDSACASA-N

> <PUBCHEM_XLOGP3_AA>
4.4

> <PUBCHEM_EXACT_MASS>
354.140451

> <PUBCHEM_MOLECULAR_FORMULA>
C18H16F2N6

> <PUBCHEM_MOLECULAR_WEIGHT>
354.4

> <PUBCHEM_OPENEYE_CAN_SMILES>
CC1=CC(=NN1)NC2=C(C=C(C(=N2)NC(C)C3=CC=C(C=C3)F)C#N)F

> <PUBCHEM_OPENEYE_ISO_SMILES>
CC1=CC(=NN1)NC2=C(C=C(C(=N2)N[C@@H](C)C3=CC=C(C=C3)F)C#N)F

> <PUBCHEM_CACTVS_TPSA>
89.4

> <PUBCHEM_MONOISOTOPIC_WEIGHT>
354.140451

> <PUBCHEM_TOTAL_CHARGE>
0

> <PUBCHEM_HEAVY_ATOM_COUNT>
26

> <PUBCHEM_ATOM_DEF_STEREO_COUNT>
1

> <PUBCHEM_ATOM_UDEF_STEREO_COUNT>
0

> <PUBCHEM_BOND_DEF_STEREO_COUNT>
0

> <PUBCHEM_BOND_UDEF_STEREO_COUNT>
0

> <PUBCHEM_ISOTOPIC_ATOM_COUNT>
0

> <PUBCHEM_COMPONENT_COUNT>
1

> <PUBCHEM_CACTVS_TAUTO_COUNT>
-1

> <PUBCHEM_COORDINATE_TYPE>
1
5
255

> <PUBCHEM_BONDANNOTATIONS>
10  13  8
10  14  8
12  15  8
13  17  8
14  18  8
15  19  8
16  20  8
17  22  8
18  22  8
19  20  8
21  24  8
23  24  8
9  3  6
4  12  8
4  16  8
6  23  8
6  7  8
7  21  8

$$$$
2726824
  -OEChem-02182015172D

 32 34  0     0  0  0  0  0  0999 V2000
    2.0000   -1.2038    0.0000 S   0  0  0  0  0  0  0  0  0  0  0  0
    9.8622    2.3170    0.0000 F   0  0  0  0  0  0  0  0  0  0  0  0
    9.4962    0.9510    0.0000 F   0  0  0  0  0  0  0  0  0  0  0  0
    8.4962    2.6830    0.0000 F   0  0  0  0  0  0  0  0  0  0  0  0
    4.6660   -2.6830    0.0000 O   0  0  0  0  0  0  0  0  0  0  0  0
    4.6660    0.3170    0.0000 N   0  0  0  0  0  0  0  0  0  0  0  0
    5.5321   -1.1830    0.0000 N   0  0  0  0  0  0  0  0  0  0  0  0
    3.8000   -0.1830    0.0000 C   0  0  0  0  0  0  0  0  0  0  0  0
    2.9061    0.3516    0.0000 C   0  0  0  0  0  0  0  0  0  0  0  0
    3.8000   -1.1830    0.0000 C   0  0  0  0  0  0  0  0  0  0  0  0
    2.0000   -0.1622    0.0000 C   0  0  0  0  0  0  0  0  0  0  0  0
    2.9061   -1.7177    0.0000 C   0  0  0  0  0  0  0  0  0  0  0  0
    5.5321   -0.1830    0.0000 C   0  0  0  0  0  0  0  0  0  0  0  0
    4.6660   -1.6830    0.0000 C   0  0  0  0  0  0  0  0  0  0  0  0
    6.3981    0.3170    0.0000 C   0  0  0  0  0  0  0  0  0  0  0  0
    6.3981    1.3170    0.0000 C   0  0  0  0  0  0  0  0  0  0  0  0
    7.2641   -0.1830    0.0000 C   0  0  0  0  0  0  0  0  0  0  0  0
    8.1301    1.3170    0.0000 C   0  0  0  0  0  0  0  0  0  0  0  0
    7.2641    1.8170    0.0000 C   0  0  0  0  0  0  0  0  0  0  0  0
    8.1301    0.3170    0.0000 C   0  0  0  0  0  0  0  0  0  0  0  0
    8.9962    1.8170    0.0000 C   0  0  0  0  0  0  0  0  0  0  0  0
    3.3107    0.8214    0.0000 H   0  0  0  0  0  0  0  0  0  0  0  0
    2.5124    0.8307    0.0000 H   0  0  0  0  0  0  0  0  0  0  0  0
    1.7909    0.4215    0.0000 H   0  0  0  0  0  0  0  0  0  0  0  0
    1.3891   -0.2683    0.0000 H   0  0  0  0  0  0  0  0  0  0  0  0
    2.5124   -2.1967    0.0000 H   0  0  0  0  0  0  0  0  0  0  0  0
    3.3107   -2.1875    0.0000 H   0  0  0  0  0  0  0  0  0  0  0  0
    4.6660    0.9370    0.0000 H   0  0  0  0  0  0  0  0  0  0  0  0
    5.8612    1.6270    0.0000 H   0  0  0  0  0  0  0  0  0  0  0  0
    7.2641   -0.8030    0.0000 H   0  0  0  0  0  0  0  0  0  0  0  0
    7.2641    2.4370    0.0000 H   0  0  0  0  0  0  0  0  0  0  0  0
    8.6671    0.0070    0.0000 H   0  0  0  0  0  0  0  0  0  0  0  0
  1 11  1  0  0  0  0
  1 12  1  0  0  0  0
  2 21  1  0  0  0  0
  3 21  1  0  0  0  0
  4 21  1  0  0  0  0
  5 14  2  0  0  0  0
  6  8  1  0  0  0  0
  6 13  1  0  0  0  0
  6 28  1  0  0  0  0
  7 13  2  0  0  0  0
  7 14  1  0  0  0  0
  8  9  1  0  0  0  0
  8 10  2  0  0  0  0
  9 11  1  0  0  0  0
  9 22  1  0  0  0  0
  9 23  1  0  0  0  0
 10 12  1  0  0  0  0
 10 14  1  0  0  0  0
 11 24  1  0  0  0  0
 11 25  1  0  0  0  0
 12 26  1  0  0  0  0
 12 27  1  0  0  0  0
 13 15  1  0  0  0  0
 15 16  2  0  0  0  0
 15 17  1  0  0  0  0
 16 19  1  0  0  0  0
 16 29  1  0  0  0  0
 17 20  2  0  0  0  0
 17 30  1  0  0  0  0
 18 19  2  0  0  0  0
 18 20  1  0  0  0  0
 18 21  1  0  0  0  0
 19 31  1  0  0  0  0
 20 32  1  0  0  0  0
M  END
> <PUBCHEM_COMPOUND_CID>
2726824

> <PUBCHEM_COMPOUND_CANONICALIZED>
1

> <PUBCHEM_CACTVS_COMPLEXITY>
505

> <PUBCHEM_CACTVS_HBOND_ACCEPTOR>
5

> <PUBCHEM_CACTVS_HBOND_DONOR>
1

> <PUBCHEM_CACTVS_ROTATABLE_BOND>
1

> <PUBCHEM_CACTVS_SUBSKEYS>
AAADccBzIYBAAAAAAAAAAAAAAAAAAAAAAAAwQIAAAAAAAACBAAAAHwQQAAAADAiF2BCxAILAAAioAidydACCAAEgABAJiAEgBNgIIKKgmRGEIAhgkACoiUcQgAAOQAAAAAAAAACAAAAAAAAAAAAAAAAAAA==

> <PUBCHEM_IUPAC_OPENEYE_NAME>
2-[4-(trifluoromethyl)phenyl]-1,5,7,8-tetrahydrothiopyrano[4,3-d]pyrimidin-4-one

> <PUBCHEM_IUPAC_CAS_NAME>
2-[4-(trifluoromethyl)phenyl]-1,5,7,8-tetrahydrothiopyrano[4,3-d]pyrimidin-4-one

> <PUBCHEM_IUPAC_NAME_MARKUP>
2-[4-(trifluoromethyl)phenyl]-1,5,7,8-tetrahydrothiopyrano[4,3-d]pyrimidin-4-one

> <PUBCHEM_IUPAC_NAME>
2-[4-(trifluoromethyl)phenyl]-1,5,7,8-tetrahydrothiopyrano[4,3-d]pyrimidin-4-one

> <PUBCHEM_IUPAC_SYSTEMATIC_NAME>
2-[4-(trifluoromethyl)phenyl]-1,5,7,8-tetrahydrothiopyrano[4,3-d]pyrimidin-4-one

> <PUBCHEM_IUPAC_TRADITIONAL_NAME>
2-[4-(trifluoromethyl)phenyl]-1,5,7,8-tetrahydrothiopyrano[4,3-d]pyrimidin-4-one

> <PUBCHEM_IUPAC_INCHI>
InChI=1S/C14H11F3N2OS/c15-14(16,17)9-3-1-8(2-4-9)12-18-11-5-6-21-7-10(11)13(20)19-12/h1-4H,5-7H2,(H,18,19,20)

> <PUBCHEM_IUPAC_INCHIKEY>
KLGQSVMIPOVQAX-UHFFFAOYSA-N

> <PUBCHEM_XLOGP3_AA>
2.3

> <PUBCHEM_EXACT_MASS>
312.054419

> <PUBCHEM_MOLECULAR_FORMULA>
C14H11F3N2OS

> <PUBCHEM_MOLECULAR_WEIGHT>
312.31

> <PUBCHEM_OPENEYE_CAN_SMILES>
C1CSCC2=C1NC(=NC2=O)C3=CC=C(C=C3)C(F)(F)F

> <PUBCHEM_OPENEYE_ISO_SMILES>
C1CSCC2=C1NC(=NC2=O)C3=CC=C(C=C3)C(F)(F)F

> <PUBCHEM_CACTVS_TPSA>
66.8

> <PUBCHEM_MONOISOTOPIC_WEIGHT>
312.054419

> <PUBCHEM_TOTAL_CHARGE>
0

> <PUBCHEM_HEAVY_ATOM_COUNT>
21

> <PUBCHEM_ATOM_DEF_STEREO_COUNT>
0

> <PUBCHEM_ATOM_UDEF_STEREO_COUNT>
0

> <PUBCHEM_BOND_DEF_STEREO_COUNT>
0

> <PUBCHEM_BOND_UDEF_STEREO_COUNT>
0

> <PUBCHEM_ISOTOPIC_ATOM_COUNT>
0

> <PUBCHEM_COMPONENT_COUNT>
1

> <PUBCHEM_CACTVS_TAUTO_COUNT>
-1

> <PUBCHEM_COORDINATE_TYPE>
1
5
255

> <PUBCHEM_BONDANNOTATIONS>
10  14  8
15  16  8
15  17  8
16  19  8
17  20  8
18  19  8
18  20  8
6  13  8
6  8  8
7  13  8
7  14  8
8  10  8

$$$$
57345410
  -OEChem-02182015172D

 83 88  0     1  0  0  0  0  0999 V2000
   13.9959    0.1204    0.0000 O   0  0  0  0  0  0  0  0  0  0  0  0
   13.6869   -2.4487    0.0000 O   0  0  0  0  0  0  0  0  0  0  0  0
   15.7560   -1.7764    0.0000 O   0  0  0  0  0  0  0  0  0  0  0  0
   11.9081    0.1774    0.0000 N   0  0  3  0  0  0  0  0  0  0  0  0
   15.7560    0.3992    0.0000 N   0  0  0  0  0  0  0  0  0  0  0  0
    6.4103    1.8482    0.0000 N   0  0  0  0  0  0  0  0  0  0  0  0
    6.4103    0.2387    0.0000 N   0  0  0  0  0  0  0  0  0  0  0  0
   16.6998    1.7029    0.0000 N   0  0  0  0  0  0  0  0  0  0  0  0
   17.1095   -0.8217    0.0000 N   0  0  0  0  0  0  0  0  0  0  0  0
   18.6906   -0.1145    0.0000 N   0  0  0  0  0  0  0  0  0  0  0  0
   18.8686    1.6084    0.0000 N   0  0  0  0  0  0  0  0  0  0  0  0
   10.9081    0.1774    0.0000 C   0  0  0  0  0  0  0  0  0  0  0  0
    9.4939    0.1774    0.0000 C   0  0  0  0  0  0  0  0  0  0  0  0
   10.2010    0.8845    0.0000 C   0  0  0  0  0  0  0  0  0  0  0  0
   10.2010   -0.5297    0.0000 C   0  0  0  0  0  0  0  0  0  0  0  0
    8.4939    0.1774    0.0000 C   0  0  0  0  0  0  0  0  0  0  0  0
   12.4081   -0.6886    0.0000 C   0  0  0  0  0  0  0  0  0  0  0  0
   12.4081    1.0434    0.0000 C   0  0  0  0  0  0  0  0  0  0  0  0
   13.4081   -0.6886    0.0000 C   0  0  2  0  0  0  0  0  0  0  0  0
   13.9959   -1.4976    0.0000 C   0  0  2  0  0  0  0  0  0  0  0  0
    7.9939    1.0434    0.0000 C   0  0  0  0  0  0  0  0  0  0  0  0
   14.9470   -1.1886    0.0000 C   0  0  2  0  0  0  0  0  0  0  0  0
   14.9470   -0.1886    0.0000 C   0  0  1  0  0  0  0  0  0  0  0  0
   11.9081    1.9094    0.0000 C   0  0  0  0  0  0  0  0  0  0  0  0
   13.4081    1.0434    0.0000 C   0  0  0  0  0  0  0  0  0  0  0  0
    6.9939    1.0434    0.0000 C   0  0  0  0  0  0  0  0  0  0  0  0
   16.7012    0.0912    0.0000 C   0  0  0  0  0  0  0  0  0  0  0  0
   15.7551    1.3932    0.0000 C   0  0  0  0  0  0  0  0  0  0  0  0
    5.4641    1.5434    0.0000 C   0  0  0  0  0  0  0  0  0  0  0  0
    5.4641    0.5434    0.0000 C   0  0  0  0  0  0  0  0  0  0  0  0
   17.2875    0.9012    0.0000 C   0  0  0  0  0  0  0  0  0  0  0  0
    4.5981    2.0434    0.0000 C   0  0  0  0  0  0  0  0  0  0  0  0
    4.5981    0.0434    0.0000 C   0  0  0  0  0  0  0  0  0  0  0  0
    3.7320    1.5434    0.0000 C   0  0  0  0  0  0  0  0  0  0  0  0
    2.8660    2.0434    0.0000 C   0  0  0  0  0  0  0  0  0  0  0  0
   18.2822    0.7984    0.0000 C   0  0  0  0  0  0  0  0  0  0  0  0
    3.7320    0.5434    0.0000 C   0  0  0  0  0  0  0  0  0  0  0  0
   18.1042   -0.9245    0.0000 C   0  0  0  0  0  0  0  0  0  0  0  0
    2.0000    2.5434    0.0000 C   0  0  0  0  0  0  0  0  0  0  0  0
    2.3660    1.1774    0.0000 C   0  0  0  0  0  0  0  0  0  0  0  0
    3.3660    2.9094    0.0000 C   0  0  0  0  0  0  0  0  0  0  0  0
   11.1454   -0.3954    0.0000 H   0  0  0  0  0  0  0  0  0  0  0  0
    9.2567    0.7502    0.0000 H   0  0  0  0  0  0  0  0  0  0  0  0
   10.6394    1.3229    0.0000 H   0  0  0  0  0  0  0  0  0  0  0  0
    9.7626    1.3229    0.0000 H   0  0  0  0  0  0  0  0  0  0  0  0
    9.7626   -0.9681    0.0000 H   0  0  0  0  0  0  0  0  0  0  0  0
   10.6394   -0.9681    0.0000 H   0  0  0  0  0  0  0  0  0  0  0  0
    7.9113   -0.0347    0.0000 H   0  0  0  0  0  0  0  0  0  0  0  0
    8.6016   -0.4332    0.0000 H   0  0  0  0  0  0  0  0  0  0  0  0
   11.8255   -0.9007    0.0000 H   0  0  0  0  0  0  0  0  0  0  0  0
   12.5158   -1.2992    0.0000 H   0  0  0  0  0  0  0  0  0  0  0  0
   11.7881    1.0434    0.0000 H   0  0  0  0  0  0  0  0  0  0  0  0
   13.1267   -0.1362    0.0000 H   0  0  0  0  0  0  0  0  0  0  0  0
   14.4343   -1.9360    0.0000 H   0  0  0  0  0  0  0  0  0  0  0  0
    8.5765    1.2555    0.0000 H   0  0  0  0  0  0  0  0  0  0  0  0
    7.8863    1.6540    0.0000 H   0  0  0  0  0  0  0  0  0  0  0  0
   15.4994   -0.9072    0.0000 H   0  0  0  0  0  0  0  0  0  0  0  0
   15.4994   -0.4701    0.0000 H   0  0  0  0  0  0  0  0  0  0  0  0
   12.4451    2.2194    0.0000 H   0  0  0  0  0  0  0  0  0  0  0  0
   11.5981    2.4464    0.0000 H   0  0  0  0  0  0  0  0  0  0  0  0
   11.3712    1.5994    0.0000 H   0  0  0  0  0  0  0  0  0  0  0  0
   13.4081    0.4234    0.0000 H   0  0  0  0  0  0  0  0  0  0  0  0
   14.0281    1.0434    0.0000 H   0  0  0  0  0  0  0  0  0  0  0  0
   13.4081    1.6634    0.0000 H   0  0  0  0  0  0  0  0  0  0  0  0
   14.1018   -2.9094    0.0000 H   0  0  0  0  0  0  0  0  0  0  0  0
   15.6912   -2.3930    0.0000 H   0  0  0  0  0  0  0  0  0  0  0  0
    6.6029    2.4375    0.0000 H   0  0  0  0  0  0  0  0  0  0  0  0
   15.2529    1.7568    0.0000 H   0  0  0  0  0  0  0  0  0  0  0  0
    4.5981    2.6634    0.0000 H   0  0  0  0  0  0  0  0  0  0  0  0
    4.5981   -0.5766    0.0000 H   0  0  0  0  0  0  0  0  0  0  0  0
    3.1951    0.2334    0.0000 H   0  0  0  0  0  0  0  0  0  0  0  0
   18.3573   -1.4904    0.0000 H   0  0  0  0  0  0  0  0  0  0  0  0
    2.3100    3.0804    0.0000 H   0  0  0  0  0  0  0  0  0  0  0  0
    1.4631    2.8534    0.0000 H   0  0  0  0  0  0  0  0  0  0  0  0
    1.6900    2.0065    0.0000 H   0  0  0  0  0  0  0  0  0  0  0  0
    1.8291    1.4874    0.0000 H   0  0  0  0  0  0  0  0  0  0  0  0
    2.0560    0.6405    0.0000 H   0  0  0  0  0  0  0  0  0  0  0  0
    2.9030    0.8674    0.0000 H   0  0  0  0  0  0  0  0  0  0  0  0
    3.9030    2.5994    0.0000 H   0  0  0  0  0  0  0  0  0  0  0  0
    3.6760    3.4464    0.0000 H   0  0  0  0  0  0  0  0  0  0  0  0
    2.8291    3.2194    0.0000 H   0  0  0  0  0  0  0  0  0  0  0  0
   19.4853    1.5447    0.0000 H   0  0  0  0  0  0  0  0  0  0  0  0
   18.6155    2.1744    0.0000 H   0  0  0  0  0  0  0  0  0  0  0  0
  1 19  1  0  0  0  0
  1 23  1  0  0  0  0
 20  2  1  6  0  0  0
  2 65  1  0  0  0  0
 22  3  1  6  0  0  0
  3 66  1  0  0  0  0
  4 12  1  0  0  0  0
  4 17  1  0  0  0  0
  4 18  1  0  0  0  0
 23  5  1  1  0  0  0
  5 27  1  0  0  0  0
  5 28  1  0  0  0  0
  6 26  1  0  0  0  0
  6 29  1  0  0  0  0
  6 67  1  0  0  0  0
  7 26  2  0  0  0  0
  7 30  1  0  0  0  0
  8 28  2  0  0  0  0
  8 31  1  0  0  0  0
  9 27  2  0  0  0  0
  9 38  1  0  0  0  0
 10 36  1  0  0  0  0
 10 38  2  0  0  0  0
 11 36  1  0  0  0  0
 11 82  1  0  0  0  0
 11 83  1  0  0  0  0
 12 14  1  0  0  0  0
 12 15  1  0  0  0  0
 12 42  1  0  0  0  0
 13 14  1  0  0  0  0
 13 15  1  0  0  0  0
 13 16  1  0  0  0  0
 13 43  1  0  0  0  0
 14 44  1  0  0  0  0
 14 45  1  0  0  0  0
 15 46  1  0  0  0  0
 15 47  1  0  0  0  0
 16 21  1  0  0  0  0
 16 48  1  0  0  0  0
 16 49  1  0  0  0  0
 19 17  1  1  0  0  0
 17 50  1  0  0  0  0
 17 51  1  0  0  0  0
 18 24  1  0  0  0  0
 18 25  1  0  0  0  0
 18 52  1  0  0  0  0
 19 20  1  0  0  0  0
 19 53  1  0  0  0  0
 20 22  1  0  0  0  0
 20 54  1  0  0  0  0
 21 26  1  0  0  0  0
 21 55  1  0  0  0  0
 21 56  1  0  0  0  0
 22 23  1  0  0  0  0
 22 57  1  0  0  0  0
 23 58  1  0  0  0  0
 24 59  1  0  0  0  0
 24 60  1  0  0  0  0
 24 61  1  0  0  0  0
 25 62  1  0  0  0  0
 25 63  1  0  0  0  0
 25 64  1  0  0  0  0
 27 31  1  0  0  0  0
 28 68  1  0  0  0  0
 29 30  2  0  0  0  0
 29 32  1  0  0  0  0
 30 33  1  0  0  0  0
 31 36  2  0  0  0  0
 32 34  2  0  0  0  0
 32 69  1  0  0  0  0
 33 37  2  0  0  0  0
 33 70  1  0  0  0  0
 34 35  1  0  0  0  0
 34 37  1  0  0  0  0
 35 39  1  0  0  0  0
 35 40  1  0  0  0  0
 35 41  1  0  0  0  0
 37 71  1  0  0  0  0
 38 72  1  0  0  0  0
 39 73  1  0  0  0  0
 39 74  1  0  0  0  0
 39 75  1  0  0  0  0
 40 76  1  0  0  0  0
 40 77  1  0  0  0  0
 40 78  1  0  0  0  0
 41 79  1  0  0  0  0
 41 80  1  0  0  0  0
 41 81  1  0  0  0  0
M  END
> <PUBCHEM_COMPOUND_CID>
57345410

> <PUBCHEM_COMPOUND_CANONICALIZED>
1

> <PUBCHEM_CACTVS_COMPLEXITY>
884

> <PUBCHEM_CACTVS_HBOND_ACCEPTOR>
9

> <PUBCHEM_CACTVS_HBOND_DONOR>
4

> <PUBCHEM_CACTVS_ROTATABLE_BOND>
9

> <PUBCHEM_CACTVS_SUBSKEYS>
AAADcfB78AAAAAAAAAAAAAAAAABgAWLEgAA8QAAAAAAAAFgB/gAAHgAQCAAADzzhnwY38L/NlgCgAyZjZACCgC2xEqAJ2SA4dJiLeKLA2dGfZAhvkALbyCewkMIPiAAAQAAAACAQAACAAAAAQAAAAAAAAA==

> <PUBCHEM_IUPAC_OPENEYE_NAME>
(2R,3R,4S,5R)-2-(6-aminopurin-9-yl)-5-[[[3-[2-(6-tert-butyl-1H-benzimidazol-2-yl)ethyl]cyclobutyl]-isopropyl-amino]methyl]tetrahydrofuran-3,4-diol

> <PUBCHEM_IUPAC_CAS_NAME>
(2R,3R,4S,5R)-2-(6-aminopurin-9-yl)-5-[[[3-[2-(6-tert-butyl-1H-benzimidazol-2-yl)ethyl]cyclobutyl]-propan-2-ylamino]methyl]oxolane-3,4-diol

> <PUBCHEM_IUPAC_NAME_MARKUP>
(2<I>R</I>,3<I>R</I>,4<I>S</I>,5<I>R</I>)-2-(6-aminopurin-9-yl)-5-[[[3-[2-(6-<I>tert</I>-butyl-1<I>H</I>-benzimidazol-2-yl)ethyl]cyclobutyl]-propan-2-ylamino]methyl]oxolane-3,4-diol

> <PUBCHEM_IUPAC_NAME>
(2R,3R,4S,5R)-2-(6-aminopurin-9-yl)-5-[[[3-[2-(6-tert-butyl-1H-benzimidazol-2-yl)ethyl]cyclobutyl]-propan-2-ylamino]methyl]oxolane-3,4-diol

> <PUBCHEM_IUPAC_SYSTEMATIC_NAME>
(2R,3R,4S,5R)-2-(6-aminopurin-9-yl)-5-[[[3-[2-(6-tert-butyl-1H-benzimidazol-2-yl)ethyl]cyclobutyl]-propan-2-yl-amino]methyl]oxolane-3,4-diol

> <PUBCHEM_IUPAC_TRADITIONAL_NAME>
(2R,3R,4S,5R)-2-adenin-9-yl-5-[[[3-[2-(6-tert-butyl-1H-benzimidazol-2-yl)ethyl]cyclobutyl]-isopropyl-amino]methyl]tetrahydrofuran-3,4-diol

> <PUBCHEM_IUPAC_INCHI>
InChI=1S/C30H42N8O3/c1-16(2)37(13-22-25(39)26(40)29(41-22)38-15-34-24-27(31)32-14-33-28(24)38)19-10-17(11-19)6-9-23-35-20-8-7-18(30(3,4)5)12-21(20)36-23/h7-8,12,14-17,19,22,25-26,29,39-40H,6,9-11,13H2,1-5H3,(H,35,36)(H2,31,32,33)/t17?,19?,22-,25-,26-,29-/m1/s1

> <PUBCHEM_IUPAC_INCHIKEY>
LXFOLMYKSYSZQS-XKHGBIBOSA-N

> <PUBCHEM_XLOGP3>
4.3

> <PUBCHEM_EXACT_MASS>
562.337987

> <PUBCHEM_MOLECULAR_FORMULA>
C30H42N8O3

> <PUBCHEM_MOLECULAR_WEIGHT>
562.7

> <PUBCHEM_OPENEYE_CAN_SMILES>
CC(C)N(CC1C(C(C(O1)N2C=NC3=C(N=CN=C32)N)O)O)C4CC(C4)CCC5=NC6=C(N5)C=C(C=C6)C(C)(C)C

> <PUBCHEM_OPENEYE_ISO_SMILES>
CC(C)N(C[C@@H]1[C@H]([C@H]([C@@H](O1)N2C=NC3=C(N=CN=C32)N)O)O)C4CC(C4)CCC5=NC6=C(N5)C=C(C=C6)C(C)(C)C

> <PUBCHEM_CACTVS_TPSA>
151

> <PUBCHEM_MONOISOTOPIC_WEIGHT>
562.337987

> <PUBCHEM_TOTAL_CHARGE>
0

> <PUBCHEM_HEAVY_ATOM_COUNT>
41

> <PUBCHEM_ATOM_DEF_STEREO_COUNT>
4

> <PUBCHEM_ATOM_UDEF_STEREO_COUNT>
0

> <PUBCHEM_BOND_DEF_STEREO_COUNT>
0

> <PUBCHEM_BOND_UDEF_STEREO_COUNT>
0

> <PUBCHEM_ISOTOPIC_ATOM_COUNT>
0

> <PUBCHEM_COMPONENT_COUNT>
1

> <PUBCHEM_CACTVS_TAUTO_COUNT>
-1

> <PUBCHEM_COORDINATE_TYPE>
1
5
255

> <PUBCHEM_BONDANNOTATIONS>
10  36  8
10  38  8
19  17  5
20  2  6
27  31  8
29  30  8
29  32  8
22  3  6
30  33  8
31  36  8
32  34  8
33  37  8
34  37  8
23  5  5
5  27  8
5  28  8
6  26  8
6  29  8
7  26  8
7  30  8
8  28  8
8  31  8
9  27  8
9  38  8

$$$$
78243717
  -OEChem-02182015172D

 43 46  0     1  0  0  0  0  0999 V2000
    5.7409   -1.9465    0.0000 O   0  0  0  0  0  0  0  0  0  0  0  0
    4.2409   -2.8125    0.0000 O   0  0  0  0  0  0  0  0  0  0  0  0
   10.3546    1.5080    0.0000 N   0  0  3  0  0  0  0  0  0  0  0  0
    7.2409    0.6516    0.0000 N   0  0  3  0  0  0  0  0  0  0  0  0
   12.0800    1.3571    0.0000 N   0  0  0  0  0  0  0  0  0  0  0  0
    8.3810    2.1263    0.0000 C   0  0  2  0  0  0  0  0  0  0  0  0
    8.6399    1.1604    0.0000 C   0  0  2  0  0  0  0  0  0  0  0  0
    9.1177    3.1089    0.0000 C   0  0  0  0  0  0  0  0  0  0  0  0
   10.0126    0.5684    0.0000 C   0  0  0  0  0  0  0  0  0  0  0  0
    6.9821    1.6175    0.0000 C   0  0  0  0  0  0  0  0  0  0  0  0
   11.2609    1.9307    0.0000 C   0  0  0  0  0  0  0  0  0  0  0  0
    6.7409   -0.2145    0.0000 C   0  0  0  0  0  0  0  0  0  0  0  0
   11.3481    2.9269    0.0000 C   0  0  0  0  0  0  0  0  0  0  0  0
    5.7409   -0.2145    0.0000 C   0  0  0  0  0  0  0  0  0  0  0  0
   12.2544    3.3495    0.0000 C   0  0  0  0  0  0  0  0  0  0  0  0
   12.9864    1.7797    0.0000 C   0  0  0  0  0  0  0  0  0  0  0  0
    5.2409   -1.0805    0.0000 C   0  0  0  0  0  0  0  0  0  0  0  0
   13.0735    2.7759    0.0000 C   0  0  0  0  0  0  0  0  0  0  0  0
    4.2409   -1.0805    0.0000 C   0  0  0  0  0  0  0  0  0  0  0  0
    3.7409   -1.9465    0.0000 C   0  0  0  0  0  0  0  0  0  0  0  0
    3.7409   -0.2145    0.0000 C   0  0  0  0  0  0  0  0  0  0  0  0
    2.7409   -1.9465    0.0000 C   0  0  0  0  0  0  0  0  0  0  0  0
    2.7409   -0.2145    0.0000 C   0  0  0  0  0  0  0  0  0  0  0  0
    2.2409   -1.0805    0.0000 C   0  0  0  0  0  0  0  0  0  0  0  0
    8.1610    2.9473    0.0000 H   0  0  0  0  0  0  0  0  0  0  0  0
    8.8599    0.3393    0.0000 H   0  0  0  0  0  0  0  0  0  0  0  0
    8.7999    3.6413    0.0000 H   0  0  0  0  0  0  0  0  0  0  0  0
    9.7308    3.2009    0.0000 H   0  0  0  0  0  0  0  0  0  0  0  0
   10.5910    0.3451    0.0000 H   0  0  0  0  0  0  0  0  0  0  0  0
    9.7781   -0.0056    0.0000 H   0  0  0  0  0  0  0  0  0  0  0  0
    6.3881    1.4397    0.0000 H   0  0  0  0  0  0  0  0  0  0  0  0
    6.7872    2.2060    0.0000 H   0  0  0  0  0  0  0  0  0  0  0  0
    7.0509   -0.7514    0.0000 H   0  0  0  0  0  0  0  0  0  0  0  0
   10.8402    3.2825    0.0000 H   0  0  0  0  0  0  0  0  0  0  0  0
    5.4309    0.3225    0.0000 H   0  0  0  0  0  0  0  0  0  0  0  0
   12.3084    3.9671    0.0000 H   0  0  0  0  0  0  0  0  0  0  0  0
   13.4942    1.4241    0.0000 H   0  0  0  0  0  0  0  0  0  0  0  0
   13.6354    3.0379    0.0000 H   0  0  0  0  0  0  0  0  0  0  0  0
    4.0509    0.3225    0.0000 H   0  0  0  0  0  0  0  0  0  0  0  0
    2.4309   -2.4834    0.0000 H   0  0  0  0  0  0  0  0  0  0  0  0
    2.4309    0.3225    0.0000 H   0  0  0  0  0  0  0  0  0  0  0  0
    1.6209   -1.0805    0.0000 H   0  0  0  0  0  0  0  0  0  0  0  0
    3.9309   -3.3495    0.0000 H   0  0  0  0  0  0  0  0  0  0  0  0
  1 17  2  0  0  0  0
  2 20  1  0  0  0  0
  2 43  1  0  0  0  0
  3  6  1  0  0  0  0
  3  9  1  0  0  0  0
  3 11  1  0  0  0  0
  4  7  1  0  0  0  0
  4 10  1  0  0  0  0
  4 12  1  0  0  0  0
  5 11  1  0  0  0  0
  5 16  2  0  0  0  0
  6  8  1  0  0  0  0
  6 10  1  0  0  0  0
  6 25  1  6  0  0  0
  7  8  1  0  0  0  0
  7  9  1  0  0  0  0
  7 26  1  1  0  0  0
  8 27  1  0  0  0  0
  8 28  1  0  0  0  0
  9 29  1  0  0  0  0
  9 30  1  0  0  0  0
 10 31  1  0  0  0  0
 10 32  1  0  0  0  0
 11 13  2  0  0  0  0
 12 14  2  0  0  0  0
 12 33  1  0  0  0  0
 13 15  1  0  0  0  0
 13 34  1  0  0  0  0
 14 17  1  0  0  0  0
 14 35  1  0  0  0  0
 15 18  2  0  0  0  0
 15 36  1  0  0  0  0
 16 18  1  0  0  0  0
 16 37  1  0  0  0  0
 17 19  1  0  0  0  0
 18 38  1  0  0  0  0
 19 20  1  0  0  0  0
 19 21  2  0  0  0  0
 20 22  2  0  0  0  0
 21 23  1  0  0  0  0
 21 39  1  0  0  0  0
 22 24  1  0  0  0  0
 22 40  1  0  0  0  0
 23 24  2  0  0  0  0
 23 41  1  0  0  0  0
 24 42  1  0  0  0  0
M  END
> <PUBCHEM_COMPOUND_CID>
78243717

> <PUBCHEM_COMPOUND_CANONICALIZED>
1

> <PUBCHEM_CACTVS_COMPLEXITY>
495

> <PUBCHEM_CACTVS_HBOND_ACCEPTOR>
5

> <PUBCHEM_CACTVS_HBOND_DONOR>
1

> <PUBCHEM_CACTVS_ROTATABLE_BOND>
4

> <PUBCHEM_CACTVS_SUBSKEYS>
AAADceB7MAAAAAAAAAAAAAAAAAAAAWLAAAA8WIAAAAAAAAABwAAAHgAACAAADCzBmgQ9tpMIEgCoArJ3ZACCgCk1IiAJ2CE+bNiIZvbC3ZOUcUhs4BPI2eeYyKCOAAAAAAAIAAAAAAAAABAAAAAAAAAAAA==

> <PUBCHEM_IUPAC_OPENEYE_NAME>
(E)-1-(2-hydroxyphenyl)-3-[(1R,4R)-5-(2-pyridyl)-2,5-diazabicyclo[2.2.1]heptan-2-yl]prop-2-en-1-one

> <PUBCHEM_IUPAC_CAS_NAME>
(E)-1-(2-hydroxyphenyl)-3-[(1R,4R)-5-(2-pyridinyl)-2,5-diazabicyclo[2.2.1]heptan-2-yl]-2-propen-1-one

> <PUBCHEM_IUPAC_NAME_MARKUP>
(<I>E</I>)-1-(2-hydroxyphenyl)-3-[(1<I>R</I>,4<I>R</I>)-5-pyridin-2-yl-2,5-diazabicyclo[2.2.1]heptan-2-yl]prop-2-en-1-one

> <PUBCHEM_IUPAC_NAME>
(E)-1-(2-hydroxyphenyl)-3-[(1R,4R)-5-pyridin-2-yl-2,5-diazabicyclo[2.2.1]heptan-2-yl]prop-2-en-1-one

> <PUBCHEM_IUPAC_SYSTEMATIC_NAME>
(E)-1-(2-hydroxyphenyl)-3-[(1R,4R)-5-pyridin-2-yl-2,5-diazabicyclo[2.2.1]heptan-2-yl]prop-2-en-1-one

> <PUBCHEM_IUPAC_TRADITIONAL_NAME>
(E)-1-(2-hydroxyphenyl)-3-[(1R,4R)-5-(2-pyridyl)-2,5-diazabicyclo[2.2.1]heptan-2-yl]prop-2-en-1-one

> <PUBCHEM_IUPAC_INCHI>
InChI=1S/C19H19N3O2/c23-17-6-2-1-5-16(17)18(24)8-10-21-12-15-11-14(21)13-22(15)19-7-3-4-9-20-19/h1-10,14-15,23H,11-13H2/b10-8+/t14-,15-/m1/s1

> <PUBCHEM_IUPAC_INCHIKEY>
INAICWLVUAKEPB-QSTFCLMHSA-N

> <PUBCHEM_XLOGP3_AA>
3.3

> <PUBCHEM_EXACT_MASS>
321.147727

> <PUBCHEM_MOLECULAR_FORMULA>
C19H19N3O2

> <PUBCHEM_MOLECULAR_WEIGHT>
321.4

> <PUBCHEM_OPENEYE_CAN_SMILES>
C1C2CN(C1CN2C3=CC=CC=N3)C=CC(=O)C4=CC=CC=C4O

> <PUBCHEM_OPENEYE_ISO_SMILES>
C1[C@@H]2CN([C@H]1CN2C3=CC=CC=N3)/C=C/C(=O)C4=CC=CC=C4O

> <PUBCHEM_CACTVS_TPSA>
56.7

> <PUBCHEM_MONOISOTOPIC_WEIGHT>
321.147727

> <PUBCHEM_TOTAL_CHARGE>
0

> <PUBCHEM_HEAVY_ATOM_COUNT>
24

> <PUBCHEM_ATOM_DEF_STEREO_COUNT>
2

> <PUBCHEM_ATOM_UDEF_STEREO_COUNT>
0

> <PUBCHEM_BOND_DEF_STEREO_COUNT>
1

> <PUBCHEM_BOND_UDEF_STEREO_COUNT>
0

> <PUBCHEM_ISOTOPIC_ATOM_COUNT>
0

> <PUBCHEM_COMPONENT_COUNT>
1

> <PUBCHEM_CACTVS_TAUTO_COUNT>
-1

> <PUBCHEM_COORDINATE_TYPE>
1
5
255

> <PUBCHEM_BONDANNOTATIONS>
11  13  8
13  15  8
15  18  8
16  18  8
19  20  8
19  21  8
20  22  8
21  23  8
22  24  8
23  24  8
5  11  8
5  16  8
6  25  6
7  26  5

$$$$
9936746
  -OEChem-02182015172D

 56 60  0     1  0  0  0  0  0999 V2000
    3.2431    3.2482    0.0000 Cl  0  0  0  0  0  0  0  0  0  0  0  0
    3.7230   -2.6201    0.0000 S   0  0  0  0  0  0  0  0  0  0  0  0
    7.1916    0.7736    0.0000 O   0  0  0  0  0  0  0  0  0  0  0  0
   10.0258    4.0854    0.0000 O   0  0  0  0  0  0  0  0  0  0  0  0
    5.4786   -2.5463    0.0000 N   0  0  0  0  0  0  0  0  0  0  0  0
    5.9786   -0.3557    0.0000 N   0  0  0  0  0  0  0  0  0  0  0  0
    7.0647   -2.8327    0.0000 N   0  0  0  0  0  0  0  0  0  0  0  0
    6.5929   -3.7077    0.0000 N   0  0  0  0  0  0  0  0  0  0  0  0
    8.8467    0.2631    0.0000 N   0  0  0  0  0  0  0  0  0  0  0  0
    6.6021   -1.1375    0.0000 C   0  0  2  0  0  0  0  0  0  0  0  0
    4.3551   -1.1375    0.0000 C   0  0  0  0  0  0  0  0  0  0  0  0
    6.3796   -2.1124    0.0000 C   0  0  0  0  0  0  0  0  0  0  0  0
    4.5777   -2.1124    0.0000 C   0  0  0  0  0  0  0  0  0  0  0  0
    4.9786   -0.3557    0.0000 C   0  0  0  0  0  0  0  0  0  0  0  0
    3.3648   -1.0510    0.0000 C   0  0  0  0  0  0  0  0  0  0  0  0
    7.5770   -0.9150    0.0000 C   0  0  0  0  0  0  0  0  0  0  0  0
    2.9749   -1.9654    0.0000 C   0  0  0  0  0  0  0  0  0  0  0  0
    5.6146   -3.5310    0.0000 C   0  0  0  0  0  0  0  0  0  0  0  0
    4.5447    0.5453    0.0000 C   0  0  0  0  0  0  0  0  0  0  0  0
    2.8504   -0.1934    0.0000 C   0  0  0  0  0  0  0  0  0  0  0  0
    7.8718    0.0406    0.0000 C   0  0  0  0  0  0  0  0  0  0  0  0
    2.0000   -2.1879    0.0000 C   0  0  0  0  0  0  0  0  0  0  0  0
    4.8930   -4.2234    0.0000 C   0  0  0  0  0  0  0  0  0  0  0  0
    3.5475    0.6200    0.0000 C   0  0  0  0  0  0  0  0  0  0  0  0
    5.1081    1.3715    0.0000 C   0  0  0  0  0  0  0  0  0  0  0  0
    3.1137    1.5210    0.0000 C   0  0  0  0  0  0  0  0  0  0  0  0
    4.6742    2.2725    0.0000 C   0  0  0  0  0  0  0  0  0  0  0  0
    9.1415    1.2187    0.0000 C   0  0  0  0  0  0  0  0  0  0  0  0
    3.6770    2.3472    0.0000 C   0  0  0  0  0  0  0  0  0  0  0  0
    8.4613    1.9517    0.0000 C   0  0  0  0  0  0  0  0  0  0  0  0
   10.1164    1.4412    0.0000 C   0  0  0  0  0  0  0  0  0  0  0  0
    8.7561    2.9073    0.0000 C   0  0  0  0  0  0  0  0  0  0  0  0
   10.4112    2.3968    0.0000 C   0  0  0  0  0  0  0  0  0  0  0  0
    9.7310    3.1298    0.0000 C   0  0  0  0  0  0  0  0  0  0  0  0
    6.8069   -0.5523    0.0000 H   0  0  0  0  0  0  0  0  0  0  0  0
    7.6080   -1.5342    0.0000 H   0  0  0  0  0  0  0  0  0  0  0  0
    8.1922   -0.9921    0.0000 H   0  0  0  0  0  0  0  0  0  0  0  0
    3.3821    0.1255    0.0000 H   0  0  0  0  0  0  0  0  0  0  0  0
    2.5315    0.3383    0.0000 H   0  0  0  0  0  0  0  0  0  0  0  0
    2.3188   -0.5123    0.0000 H   0  0  0  0  0  0  0  0  0  0  0  0
    1.8620   -1.5834    0.0000 H   0  0  0  0  0  0  0  0  0  0  0  0
    1.3955   -2.3259    0.0000 H   0  0  0  0  0  0  0  0  0  0  0  0
    2.1380   -2.7924    0.0000 H   0  0  0  0  0  0  0  0  0  0  0  0
    4.4638   -3.7760    0.0000 H   0  0  0  0  0  0  0  0  0  0  0  0
    4.4456   -4.6526    0.0000 H   0  0  0  0  0  0  0  0  0  0  0  0
    5.3223   -4.6708    0.0000 H   0  0  0  0  0  0  0  0  0  0  0  0
    3.1983    0.1078    0.0000 H   0  0  0  0  0  0  0  0  0  0  0  0
    5.7263    1.3252    0.0000 H   0  0  0  0  0  0  0  0  0  0  0  0
    9.2684   -0.1914    0.0000 H   0  0  0  0  0  0  0  0  0  0  0  0
    2.4954    1.5673    0.0000 H   0  0  0  0  0  0  0  0  0  0  0  0
    5.0234    2.7848    0.0000 H   0  0  0  0  0  0  0  0  0  0  0  0
    7.8569    1.8138    0.0000 H   0  0  0  0  0  0  0  0  0  0  0  0
   10.5381    0.9867    0.0000 H   0  0  0  0  0  0  0  0  0  0  0  0
    8.3344    3.3618    0.0000 H   0  0  0  0  0  0  0  0  0  0  0  0
   11.0156    2.5347    0.0000 H   0  0  0  0  0  0  0  0  0  0  0  0
   10.6302    4.2234    0.0000 H   0  0  0  0  0  0  0  0  0  0  0  0
  1 29  1  0  0  0  0
  2 13  1  0  0  0  0
  2 17  1  0  0  0  0
  3 21  2  0  0  0  0
  4 34  1  0  0  0  0
  4 56  1  0  0  0  0
  5 12  1  0  0  0  0
  5 13  1  0  0  0  0
  5 18  1  0  0  0  0
  6 10  1  0  0  0  0
  6 14  2  0  0  0  0
  7  8  1  0  0  0  0
  7 12  2  0  0  0  0
  8 18  2  0  0  0  0
  9 21  1  0  0  0  0
  9 28  1  0  0  0  0
  9 49  1  0  0  0  0
 10 12  1  0  0  0  0
 10 16  1  1  0  0  0
 10 35  1  0  0  0  0
 11 13  2  0  0  0  0
 11 14  1  0  0  0  0
 11 15  1  0  0  0  0
 14 19  1  0  0  0  0
 15 17  2  0  0  0  0
 15 20  1  0  0  0  0
 16 21  1  0  0  0  0
 16 36  1  0  0  0  0
 16 37  1  0  0  0  0
 17 22  1  0  0  0  0
 18 23  1  0  0  0  0
 19 24  2  0  0  0  0
 19 25  1  0  0  0  0
 20 38  1  0  0  0  0
 20 39  1  0  0  0  0
 20 40  1  0  0  0  0
 22 41  1  0  0  0  0
 22 42  1  0  0  0  0
 22 43  1  0  0  0  0
 23 44  1  0  0  0  0
 23 45  1  0  0  0  0
 23 46  1  0  0  0  0
 24 26  1  0  0  0  0
 24 47  1  0  0  0  0
 25 27  2  0  0  0  0
 25 48  1  0  0  0  0
 26 29  2  0  0  0  0
 26 50  1  0  0  0  0
 27 29  1  0  0  0  0
 27 51  1  0  0  0  0
 28 30  2  0  0  0  0
 28 31  1  0  0  0  0
 30 32  1  0  0  0  0
 30 52  1  0  0  0  0
 31 33  2  0  0  0  0
 31 53  1  0  0  0  0
 32 34  2  0  0  0  0
 32 54  1  0  0  0  0
 33 34  1  0  0  0  0
 33 55  1  0  0  0  0
M  END
> <PUBCHEM_COMPOUND_CID>
9936746

> <PUBCHEM_COMPOUND_CANONICALIZED>
1

> <PUBCHEM_CACTVS_COMPLEXITY>
770

> <PUBCHEM_CACTVS_HBOND_ACCEPTOR>
6

> <PUBCHEM_CACTVS_HBOND_DONOR>
2

> <PUBCHEM_CACTVS_ROTATABLE_BOND>
4

> <PUBCHEM_CACTVS_SUBSKEYS>
AAADceB7sABEAAAAAAAAAAAAAAAAAWJAAAAwYAAABAAAAACB9AAAHgYYCAAADC7B2yQz14fMEgiuAydydACTgKthL7gdiBE2bpiIbrrj25OUcAhk3BPo2Ce0wMAOhEAAAAAAAAAIgAAAAAAAAAAAAAAAAA==

> <PUBCHEM_IUPAC_OPENEYE_NAME>
2-[(9S)-7-(4-chlorophenyl)-4,5,13-trimethyl-3-thia-1,8,11,12-tetrazatricyclo[8.3.0.02,6]trideca-2(6),4,7,10,12-pentaen-9-yl]-N-(4-hydroxyphenyl)acetamide

> <PUBCHEM_IUPAC_CAS_NAME>
2-[(9S)-7-(4-chlorophenyl)-4,5,13-trimethyl-3-thia-1,8,11,12-tetrazatricyclo[8.3.0.02,6]trideca-2(6),4,7,10,12-pentaen-9-yl]-N-(4-hydroxyphenyl)acetamide

> <PUBCHEM_IUPAC_NAME_MARKUP>
2-[(9<I>S</I>)-7-(4-chlorophenyl)-4,5,13-trimethyl-3-thia-1,8,11,12-tetrazatricyclo[8.3.0.0<SUP>2,6</SUP>]trideca-2(6),4,7,10,12-pentaen-9-yl]-<I>N</I>-(4-hydroxyphenyl)acetamide

> <PUBCHEM_IUPAC_NAME>
2-[(9S)-7-(4-chlorophenyl)-4,5,13-trimethyl-3-thia-1,8,11,12-tetrazatricyclo[8.3.0.02,6]trideca-2(6),4,7,10,12-pentaen-9-yl]-N-(4-hydroxyphenyl)acetamide

> <PUBCHEM_IUPAC_SYSTEMATIC_NAME>
2-[(9S)-7-(4-chlorophenyl)-4,5,13-trimethyl-3-thia-1,8,11,12-tetrazatricyclo[8.3.0.02,6]trideca-2(6),4,7,10,12-pentaen-9-yl]-N-(4-hydroxyphenyl)ethanamide

> <PUBCHEM_IUPAC_TRADITIONAL_NAME>
2-[(9S)-7-(4-chlorophenyl)-4,5,13-trimethyl-3-thia-1,8,11,12-tetrazatricyclo[8.3.0.02,6]trideca-2(6),4,7,10,12-pentaen-9-yl]-N-(4-hydroxyphenyl)acetamide

> <PUBCHEM_IUPAC_INCHI>
InChI=1S/C25H22ClN5O2S/c1-13-14(2)34-25-22(13)23(16-4-6-17(26)7-5-16)28-20(24-30-29-15(3)31(24)25)12-21(33)27-18-8-10-19(32)11-9-18/h4-11,20,32H,12H2,1-3H3,(H,27,33)/t20-/m0/s1

> <PUBCHEM_IUPAC_INCHIKEY>
GNMUEVRJHCWKTO-FQEVSTJZSA-N

> <PUBCHEM_XLOGP3_AA>
4.5

> <PUBCHEM_EXACT_MASS>
491.118274

> <PUBCHEM_MOLECULAR_FORMULA>
C25H22ClN5O2S

> <PUBCHEM_MOLECULAR_WEIGHT>
492

> <PUBCHEM_OPENEYE_CAN_SMILES>
CC1=C(SC2=C1C(=NC(C3=NN=C(N32)C)CC(=O)NC4=CC=C(C=C4)O)C5=CC=C(C=C5)Cl)C

> <PUBCHEM_OPENEYE_ISO_SMILES>
CC1=C(SC2=C1C(=N[C@H](C3=NN=C(N32)C)CC(=O)NC4=CC=C(C=C4)O)C5=CC=C(C=C5)Cl)C

> <PUBCHEM_CACTVS_TPSA>
121

> <PUBCHEM_MONOISOTOPIC_WEIGHT>
491.118274

> <PUBCHEM_TOTAL_CHARGE>
0

> <PUBCHEM_HEAVY_ATOM_COUNT>
34

> <PUBCHEM_ATOM_DEF_STEREO_COUNT>
1

> <PUBCHEM_ATOM_UDEF_STEREO_COUNT>
0

> <PUBCHEM_BOND_DEF_STEREO_COUNT>
0

> <PUBCHEM_BOND_UDEF_STEREO_COUNT>
0

> <PUBCHEM_ISOTOPIC_ATOM_COUNT>
0

> <PUBCHEM_COMPONENT_COUNT>
1

> <PUBCHEM_CACTVS_TAUTO_COUNT>
-1

> <PUBCHEM_COORDINATE_TYPE>
1
5
255

> <PUBCHEM_BONDANNOTATIONS>
10  16  5
11  13  8
11  15  8
15  17  8
19  24  8
19  25  8
2  13  8
2  17  8
24  26  8
25  27  8
26  29  8
27  29  8
28  30  8
28  31  8
30  32  8
31  33  8
32  34  8
33  34  8
5  12  8
5  18  8
7  12  8
7  8  8
8  18  8

$$$$
59473233
  -OEChem-02182015172D

 52 57  0     0  0  0  0  0  0999 V2000
    2.0000   -4.2166    0.0000 O   0  0  0  0  0  0  0  0  0  0  0  0
    3.7320   -3.2166    0.0000 N   0  0  0  0  0  0  0  0  0  0  0  0
    7.1962   -1.2166    0.0000 N   0  0  0  0  0  0  0  0  0  0  0  0
    8.0622    1.2834    0.0000 N   0  0  0  0  0  0  0  0  0  0  0  0
    6.3301    0.2834    0.0000 N   0  0  0  0  0  0  0  0  0  0  0  0
    9.0084   -0.0214    0.0000 N   0  0  0  0  0  0  0  0  0  0  0  0
    4.3889    4.2552    0.0000 N   0  0  0  0  0  0  0  0  0  0  0  0
    3.4002    4.3582    0.0000 N   0  0  0  0  0  0  0  0  0  0  0  0
    3.7320   -4.2166    0.0000 C   0  0  0  0  0  0  0  0  0  0  0  0
    2.8660   -2.7166    0.0000 C   0  0  0  0  0  0  0  0  0  0  0  0
    2.8660   -4.7166    0.0000 C   0  0  0  0  0  0  0  0  0  0  0  0
    2.0000   -3.2166    0.0000 C   0  0  0  0  0  0  0  0  0  0  0  0
    4.5981   -2.7166    0.0000 C   0  0  0  0  0  0  0  0  0  0  0  0
    4.5981   -1.7166    0.0000 C   0  0  0  0  0  0  0  0  0  0  0  0
    5.4641   -3.2166    0.0000 C   0  0  0  0  0  0  0  0  0  0  0  0
    6.3301   -1.7166    0.0000 C   0  0  0  0  0  0  0  0  0  0  0  0
    5.4641   -1.2166    0.0000 C   0  0  0  0  0  0  0  0  0  0  0  0
    6.3301   -2.7166    0.0000 C   0  0  0  0  0  0  0  0  0  0  0  0
    7.1962   -0.2166    0.0000 C   0  0  0  0  0  0  0  0  0  0  0  0
    8.0622    0.2834    0.0000 C   0  0  0  0  0  0  0  0  0  0  0  0
    6.3301    1.2834    0.0000 C   0  0  0  0  0  0  0  0  0  0  0  0
    5.4641    1.7834    0.0000 C   0  0  0  0  0  0  0  0  0  0  0  0
    7.1962    1.7834    0.0000 C   0  0  0  0  0  0  0  0  0  0  0  0
    4.5981    3.2834    0.0000 C   0  0  0  0  0  0  0  0  0  0  0  0
    5.4641    2.7834    0.0000 C   0  0  0  0  0  0  0  0  0  0  0  0
    3.7320    2.7834    0.0000 C   0  0  0  0  0  0  0  0  0  0  0  0
    4.5981    1.2834    0.0000 C   0  0  0  0  0  0  0  0  0  0  0  0
    9.0084    1.5881    0.0000 C   0  0  0  0  0  0  0  0  0  0  0  0
    3.7320    1.7834    0.0000 C   0  0  0  0  0  0  0  0  0  0  0  0
    9.5920    0.7834    0.0000 C   0  0  0  0  0  0  0  0  0  0  0  0
    2.9950    3.4504    0.0000 C   0  0  0  0  0  0  0  0  0  0  0  0
    3.9441   -4.7992    0.0000 H   0  0  0  0  0  0  0  0  0  0  0  0
    4.3426   -4.1090    0.0000 H   0  0  0  0  0  0  0  0  0  0  0  0
    3.2646   -2.2417    0.0000 H   0  0  0  0  0  0  0  0  0  0  0  0
    2.4675   -2.2417    0.0000 H   0  0  0  0  0  0  0  0  0  0  0  0
    2.4675   -5.1916    0.0000 H   0  0  0  0  0  0  0  0  0  0  0  0
    3.2646   -5.1916    0.0000 H   0  0  0  0  0  0  0  0  0  0  0  0
    1.7880   -2.6340    0.0000 H   0  0  0  0  0  0  0  0  0  0  0  0
    1.3894   -3.3243    0.0000 H   0  0  0  0  0  0  0  0  0  0  0  0
    4.0611   -1.4066    0.0000 H   0  0  0  0  0  0  0  0  0  0  0  0
    5.4641   -3.8366    0.0000 H   0  0  0  0  0  0  0  0  0  0  0  0
    5.4641   -0.5966    0.0000 H   0  0  0  0  0  0  0  0  0  0  0  0
    6.8671   -3.0266    0.0000 H   0  0  0  0  0  0  0  0  0  0  0  0
    7.7331   -1.5266    0.0000 H   0  0  0  0  0  0  0  0  0  0  0  0
    7.1962    2.4034    0.0000 H   0  0  0  0  0  0  0  0  0  0  0  0
    6.0010    3.0934    0.0000 H   0  0  0  0  0  0  0  0  0  0  0  0
    4.5981    0.6634    0.0000 H   0  0  0  0  0  0  0  0  0  0  0  0
    9.2010    2.1774    0.0000 H   0  0  0  0  0  0  0  0  0  0  0  0
    3.1951    1.4734    0.0000 H   0  0  0  0  0  0  0  0  0  0  0  0
   10.2120    0.7834    0.0000 H   0  0  0  0  0  0  0  0  0  0  0  0
    4.8029    4.7166    0.0000 H   0  0  0  0  0  0  0  0  0  0  0  0
    2.3884    3.3226    0.0000 H   0  0  0  0  0  0  0  0  0  0  0  0
  1 11  1  0  0  0  0
  1 12  1  0  0  0  0
  2  9  1  0  0  0  0
  2 10  1  0  0  0  0
  2 13  1  0  0  0  0
  3 16  1  0  0  0  0
  3 19  1  0  0  0  0
  3 44  1  0  0  0  0
  4 20  1  0  0  0  0
  4 23  1  0  0  0  0
  4 28  1  0  0  0  0
  5 19  2  0  0  0  0
  5 21  1  0  0  0  0
  6 20  2  0  0  0  0
  6 30  1  0  0  0  0
  7  8  1  0  0  0  0
  7 24  1  0  0  0  0
  7 51  1  0  0  0  0
  8 31  2  0  0  0  0
  9 11  1  0  0  0  0
  9 32  1  0  0  0  0
  9 33  1  0  0  0  0
 10 12  1  0  0  0  0
 10 34  1  0  0  0  0
 10 35  1  0  0  0  0
 11 36  1  0  0  0  0
 11 37  1  0  0  0  0
 12 38  1  0  0  0  0
 12 39  1  0  0  0  0
 13 14  2  0  0  0  0
 13 15  1  0  0  0  0
 14 17  1  0  0  0  0
 14 40  1  0  0  0  0
 15 18  2  0  0  0  0
 15 41  1  0  0  0  0
 16 17  2  0  0  0  0
 16 18  1  0  0  0  0
 17 42  1  0  0  0  0
 18 43  1  0  0  0  0
 19 20  1  0  0  0  0
 21 22  1  0  0  0  0
 21 23  2  0  0  0  0
 22 25  2  0  0  0  0
 22 27  1  0  0  0  0
 23 45  1  0  0  0  0
 24 25  1  0  0  0  0
 24 26  2  0  0  0  0
 25 46  1  0  0  0  0
 26 29  1  0  0  0  0
 26 31  1  0  0  0  0
 27 29  2  0  0  0  0
 27 47  1  0  0  0  0
 28 30  2  0  0  0  0
 28 48  1  0  0  0  0
 29 49  1  0  0  0  0
 30 50  1  0  0  0  0
 31 52  1  0  0  0  0
M  END
> <PUBCHEM_COMPOUND_CID>
59473233

> <PUBCHEM_COMPOUND_CANONICALIZED>
1

> <PUBCHEM_CACTVS_COMPLEXITY>
595

> <PUBCHEM_CACTVS_HBOND_ACCEPTOR>
6

> <PUBCHEM_CACTVS_HBOND_DONOR>
2

> <PUBCHEM_CACTVS_ROTATABLE_BOND>
4

> <PUBCHEM_CACTVS_SUBSKEYS>
AAADceB7oAAAAAAAAAAAAAAAAAAAAWLAAAA8eIEAAAAAAFgB/gAAHgAYAAAADAjhnwY98P/vHACiAzZnZACShC0xkqAZ+SA4dJiKaOLA2dGXpAhomALYyCcQgMAOQACAQAACAACAAQCAAAQAAAAAAAAAAA==

> <PUBCHEM_IUPAC_OPENEYE_NAME>
6-(1H-indazol-6-yl)-N-(4-morpholinophenyl)imidazo[1,2-a]pyrazin-8-amine

> <PUBCHEM_IUPAC_CAS_NAME>
6-(1H-indazol-6-yl)-N-[4-(4-morpholinyl)phenyl]-8-imidazo[1,2-a]pyrazinamine

> <PUBCHEM_IUPAC_NAME_MARKUP>
6-(1<I>H</I>-indazol-6-yl)-<I>N</I>-(4-morpholin-4-ylphenyl)imidazo[1,2-a]pyrazin-8-amine

> <PUBCHEM_IUPAC_NAME>
6-(1H-indazol-6-yl)-N-(4-morpholin-4-ylphenyl)imidazo[1,2-a]pyrazin-8-amine

> <PUBCHEM_IUPAC_SYSTEMATIC_NAME>
6-(1H-indazol-6-yl)-N-(4-morpholin-4-ylphenyl)imidazo[1,2-a]pyrazin-8-amine

> <PUBCHEM_IUPAC_TRADITIONAL_NAME>
[6-(1H-indazol-6-yl)imidazo[1,2-a]pyrazin-8-yl]-(4-morpholinophenyl)amine

> <PUBCHEM_IUPAC_INCHI>
InChI=1S/C23H21N7O/c1-2-17-14-25-28-20(17)13-16(1)21-15-30-8-7-24-23(30)22(27-21)26-18-3-5-19(6-4-18)29-9-11-31-12-10-29/h1-8,13-15H,9-12H2,(H,25,28)(H,26,27)

> <PUBCHEM_IUPAC_INCHIKEY>
XSMSNFMDVXXHGJ-UHFFFAOYSA-N

> <PUBCHEM_XLOGP3_AA>
3.6

> <PUBCHEM_EXACT_MASS>
411.180758

> <PUBCHEM_MOLECULAR_FORMULA>
C23H21N7O

> <PUBCHEM_MOLECULAR_WEIGHT>
411.5

> <PUBCHEM_OPENEYE_CAN_SMILES>
C1COCCN1C2=CC=C(C=C2)NC3=NC(=CN4C3=NC=C4)C5=CC6=C(C=C5)C=NN6

> <PUBCHEM_OPENEYE_ISO_SMILES>
C1COCCN1C2=CC=C(C=C2)NC3=NC(=CN4C3=NC=C4)C5=CC6=C(C=C5)C=NN6

> <PUBCHEM_CACTVS_TPSA>
83.4

> <PUBCHEM_MONOISOTOPIC_WEIGHT>
411.180758

> <PUBCHEM_TOTAL_CHARGE>
0

> <PUBCHEM_HEAVY_ATOM_COUNT>
31

> <PUBCHEM_ATOM_DEF_STEREO_COUNT>
0

> <PUBCHEM_ATOM_UDEF_STEREO_COUNT>
0

> <PUBCHEM_BOND_DEF_STEREO_COUNT>
0

> <PUBCHEM_BOND_UDEF_STEREO_COUNT>
0

> <PUBCHEM_ISOTOPIC_ATOM_COUNT>
0

> <PUBCHEM_COMPONENT_COUNT>
1

> <PUBCHEM_CACTVS_TAUTO_COUNT>
-1

> <PUBCHEM_COORDINATE_TYPE>
1
5
255

> <PUBCHEM_BONDANNOTATIONS>
13  14  8
13  15  8
14  17  8
15  18  8
16  17  8
16  18  8
19  20  8
21  23  8
22  25  8
22  27  8
24  25  8
24  26  8
26  29  8
26  31  8
27  29  8
28  30  8
4  20  8
4  23  8
4  28  8
5  19  8
5  21  8
6  20  8
6  30  8
7  24  8
7  8  8
8  31  8

$$$$
1018
  -OEChem-02182015172D

 14 14  0     0  0  0  0  0  0999 V2000
    2.5369   -0.0000    0.0000 O   0  0  0  0  0  0  0  0  0  0  0  0
    3.4030   -1.5000    0.0000 O   0  0  0  0  0  0  0  0  0  0  0  0
    5.1350   -0.5000    0.0000 N   0  0  0  0  0  0  0  0  0  0  0  0
    4.2690   -0.0000    0.0000 C   0  0  0  0  0  0  0  0  0  0  0  0
    4.2690    1.0000    0.0000 C   0  0  0  0  0  0  0  0  0  0  0  0
    5.1350    1.5000    0.0000 C   0  0  0  0  0  0  0  0  0  0  0  0
    6.0010    1.0000    0.0000 C   0  0  0  0  0  0  0  0  0  0  0  0
    6.0010    0.0000    0.0000 C   0  0  0  0  0  0  0  0  0  0  0  0
    3.4030   -0.5000    0.0000 C   0  0  0  0  0  0  0  0  0  0  0  0
    3.7320    1.3100    0.0000 H   0  0  0  0  0  0  0  0  0  0  0  0
    5.1350    2.1200    0.0000 H   0  0  0  0  0  0  0  0  0  0  0  0
    6.5380    1.3100    0.0000 H   0  0  0  0  0  0  0  0  0  0  0  0
    6.5380   -0.3100    0.0000 H   0  0  0  0  0  0  0  0  0  0  0  0
    2.0000   -0.3100    0.0000 H   0  0  0  0  0  0  0  0  0  0  0  0
  1  9  1  0  0  0  0
  1 14  1  0  0  0  0
  2  9  2  0  0  0  0
  3  4  1  0  0  0  0
  3  8  2  0  0  0  0
  4  5  2  0  0  0  0
  4  9  1  0  0  0  0
  5  6  1  0  0  0  0
  5 10  1  0  0  0  0
  6  7  2  0  0  0  0
  6 11  1  0  0  0  0
  7  8  1  0  0  0  0
  7 12  1  0  0  0  0
  8 13  1  0  0  0  0
M  END
> <PUBCHEM_COMPOUND_CID>
1018

> <PUBCHEM_COMPOUND_CANONICALIZED>
1

> <PUBCHEM_CACTVS_COMPLEXITY>
114

> <PUBCHEM_CACTVS_HBOND_ACCEPTOR>
3

> <PUBCHEM_CACTVS_HBOND_DONOR>
1

> <PUBCHEM_CACTVS_ROTATABLE_BOND>
1

> <PUBCHEM_CACTVS_SUBSKEYS>
AAADcYBiMAAAAAAAAAAAAAAAAAAAAAAAAAAsAAAAAAAAAAABgAAAHgAACAAACAjBlgQ8iJIIEgCoATT3TASCgCA3AiAI2CG4bNgKJvLAlbGEcQhkwAHY2YeYSAAAAAAAAAAAAAAAAAAAAAAAAAAAAAAAAA==

> <PUBCHEM_IUPAC_OPENEYE_NAME>
pyridine-2-carboxylic acid

> <PUBCHEM_IUPAC_CAS_NAME>
2-pyridinecarboxylic acid

> <PUBCHEM_IUPAC_NAME_MARKUP>
pyridine-2-carboxylic acid

> <PUBCHEM_IUPAC_NAME>
pyridine-2-carboxylic acid

> <PUBCHEM_IUPAC_SYSTEMATIC_NAME>
pyridine-2-carboxylic acid

> <PUBCHEM_IUPAC_TRADITIONAL_NAME>
picolinic acid

> <PUBCHEM_IUPAC_INCHI>
InChI=1S/C6H5NO2/c8-6(9)5-3-1-2-4-7-5/h1-4H,(H,8,9)

> <PUBCHEM_IUPAC_INCHIKEY>
SIOXPEMLGUPBBT-UHFFFAOYSA-N

> <PUBCHEM_XLOGP3>
0.8

> <PUBCHEM_EXACT_MASS>
123.032028

> <PUBCHEM_MOLECULAR_FORMULA>
C6H5NO2

> <PUBCHEM_MOLECULAR_WEIGHT>
123.11

> <PUBCHEM_OPENEYE_CAN_SMILES>
C1=CC=NC(=C1)C(=O)O

> <PUBCHEM_OPENEYE_ISO_SMILES>
C1=CC=NC(=C1)C(=O)O

> <PUBCHEM_CACTVS_TPSA>
50.2

> <PUBCHEM_MONOISOTOPIC_WEIGHT>
123.032028

> <PUBCHEM_TOTAL_CHARGE>
0

> <PUBCHEM_HEAVY_ATOM_COUNT>
9

> <PUBCHEM_ATOM_DEF_STEREO_COUNT>
0

> <PUBCHEM_ATOM_UDEF_STEREO_COUNT>
0

> <PUBCHEM_BOND_DEF_STEREO_COUNT>
0

> <PUBCHEM_BOND_UDEF_STEREO_COUNT>
0

> <PUBCHEM_ISOTOPIC_ATOM_COUNT>
0

> <PUBCHEM_COMPONENT_COUNT>
1

> <PUBCHEM_CACTVS_TAUTO_COUNT>
-1

> <PUBCHEM_COORDINATE_TYPE>
1
5
255

> <PUBCHEM_BONDANNOTATIONS>
3  4  8
3  8  8
4  5  8
5  6  8
6  7  8
7  8  8

$$$$
54761306
  -OEChem-02182015172D

 53 57  0     1  0  0  0  0  0999 V2000
    3.0000    2.5420    0.0000 S   0  0  1  0  0  0  0  0  0  0  0  0
    4.0000    2.5420    0.0000 O   0  0  0  0  0  0  0  0  0  0  0  0
    8.1962    2.5420    0.0000 O   0  0  0  0  0  0  0  0  0  0  0  0
    3.0000    3.5420    0.0000 N   0  0  0  0  0  0  0  0  0  0  0  0
    3.8660    0.0420    0.0000 N   0  0  0  0  0  0  0  0  0  0  0  0
    6.4641    1.5420    0.0000 N   0  0  3  0  0  0  0  0  0  0  0  0
    5.5981    0.0420    0.0000 N   0  0  0  0  0  0  0  0  0  0  0  0
    6.5443   -3.2627    0.0000 N   0  0  0  0  0  0  0  0  0  0  0  0
    4.7320   -3.4580    0.0000 N   0  0  0  0  0  0  0  0  0  0  0  0
    3.0000    1.5420    0.0000 C   0  0  0  0  0  0  0  0  0  0  0  0
    2.5000    0.6760    0.0000 C   0  0  0  0  0  0  0  0  0  0  0  0
    2.0000    1.5420    0.0000 C   0  0  0  0  0  0  0  0  0  0  0  0
    3.8660    1.0420    0.0000 C   0  0  0  0  0  0  0  0  0  0  0  0
    2.0000    2.5420    0.0000 C   0  0  0  0  0  0  0  0  0  0  0  0
    4.7320    1.5420    0.0000 C   0  0  0  0  0  0  0  0  0  0  0  0
    5.5981    1.0420    0.0000 C   0  0  0  0  0  0  0  0  0  0  0  0
    4.7320   -0.4580    0.0000 C   0  0  0  0  0  0  0  0  0  0  0  0
    7.3301    1.0420    0.0000 C   0  0  1  0  0  0  0  0  0  0  0  0
    6.4641    2.5420    0.0000 C   0  0  0  0  0  0  0  0  0  0  0  0
    8.1962    1.5420    0.0000 C   0  0  0  0  0  0  0  0  0  0  0  0
    4.7320   -1.4580    0.0000 C   0  0  0  0  0  0  0  0  0  0  0  0
    7.3301    3.0420    0.0000 C   0  0  0  0  0  0  0  0  0  0  0  0
    7.3301    0.0420    0.0000 C   0  0  0  0  0  0  0  0  0  0  0  0
    5.5981   -1.9580    0.0000 C   0  0  0  0  0  0  0  0  0  0  0  0
    3.8660   -1.9580    0.0000 C   0  0  0  0  0  0  0  0  0  0  0  0
    5.5981   -2.9580    0.0000 C   0  0  0  0  0  0  0  0  0  0  0  0
    6.5443   -1.6532    0.0000 C   0  0  0  0  0  0  0  0  0  0  0  0
    3.8660   -2.9580    0.0000 C   0  0  0  0  0  0  0  0  0  0  0  0
    7.1279   -2.4580    0.0000 C   0  0  0  0  0  0  0  0  0  0  0  0
    2.0250    0.2775    0.0000 H   0  0  0  0  0  0  0  0  0  0  0  0
    2.9750    0.2775    0.0000 H   0  0  0  0  0  0  0  0  0  0  0  0
    1.8923    2.1526    0.0000 H   0  0  0  0  0  0  0  0  0  0  0  0
    1.4174    1.3300    0.0000 H   0  0  0  0  0  0  0  0  0  0  0  0
    2.0000    3.1620    0.0000 H   0  0  0  0  0  0  0  0  0  0  0  0
    1.3800    2.5420    0.0000 H   0  0  0  0  0  0  0  0  0  0  0  0
    2.0000    1.9220    0.0000 H   0  0  0  0  0  0  0  0  0  0  0  0
    4.7320    2.1620    0.0000 H   0  0  0  0  0  0  0  0  0  0  0  0
    2.4631    3.8520    0.0000 H   0  0  0  0  0  0  0  0  0  0  0  0
    6.7932    0.7320    0.0000 H   0  0  0  0  0  0  0  0  0  0  0  0
    6.2520    3.1246    0.0000 H   0  0  0  0  0  0  0  0  0  0  0  0
    5.8535    2.4344    0.0000 H   0  0  0  0  0  0  0  0  0  0  0  0
    8.4082    0.9594    0.0000 H   0  0  0  0  0  0  0  0  0  0  0  0
    8.8067    1.6497    0.0000 H   0  0  0  0  0  0  0  0  0  0  0  0
    7.7287    3.5170    0.0000 H   0  0  0  0  0  0  0  0  0  0  0  0
    6.9316    3.5170    0.0000 H   0  0  0  0  0  0  0  0  0  0  0  0
    6.7101    0.0420    0.0000 H   0  0  0  0  0  0  0  0  0  0  0  0
    7.3301   -0.5780    0.0000 H   0  0  0  0  0  0  0  0  0  0  0  0
    7.9501    0.0420    0.0000 H   0  0  0  0  0  0  0  0  0  0  0  0
    3.3291   -1.6480    0.0000 H   0  0  0  0  0  0  0  0  0  0  0  0
    6.7369   -1.0639    0.0000 H   0  0  0  0  0  0  0  0  0  0  0  0
    3.3291   -3.2680    0.0000 H   0  0  0  0  0  0  0  0  0  0  0  0
    6.7369   -3.8520    0.0000 H   0  0  0  0  0  0  0  0  0  0  0  0
    7.7479   -2.4580    0.0000 H   0  0  0  0  0  0  0  0  0  0  0  0
  1  2  2  0  0  0  0
  1  4  2  0  0  0  0
  1 10  1  0  0  0  0
  1 14  1  1  0  0  0
  3 20  1  0  0  0  0
  3 22  1  0  0  0  0
  4 38  1  0  0  0  0
  5 13  1  0  0  0  0
  5 17  2  0  0  0  0
  6 16  1  0  0  0  0
  6 18  1  0  0  0  0
  6 19  1  0  0  0  0
  7 16  2  0  0  0  0
  7 17  1  0  0  0  0
  8 26  1  0  0  0  0
  8 29  1  0  0  0  0
  8 52  1  0  0  0  0
  9 26  2  0  0  0  0
  9 28  1  0  0  0  0
 10 11  1  0  0  0  0
 10 12  1  0  0  0  0
 10 13  1  0  0  0  0
 11 12  1  0  0  0  0
 11 30  1  0  0  0  0
 11 31  1  0  0  0  0
 12 32  1  0  0  0  0
 12 33  1  0  0  0  0
 13 15  2  0  0  0  0
 14 34  1  0  0  0  0
 14 35  1  0  0  0  0
 14 36  1  0  0  0  0
 15 16  1  0  0  0  0
 15 37  1  0  0  0  0
 17 21  1  0  0  0  0
 18 20  1  0  0  0  0
 18 23  1  1  0  0  0
 18 39  1  0  0  0  0
 19 22  1  0  0  0  0
 19 40  1  0  0  0  0
 19 41  1  0  0  0  0
 20 42  1  0  0  0  0
 20 43  1  0  0  0  0
 21 24  2  0  0  0  0
 21 25  1  0  0  0  0
 22 44  1  0  0  0  0
 22 45  1  0  0  0  0
 23 46  1  0  0  0  0
 23 47  1  0  0  0  0
 23 48  1  0  0  0  0
 24 26  1  0  0  0  0
 24 27  1  0  0  0  0
 25 28  2  0  0  0  0
 25 49  1  0  0  0  0
 27 29  2  0  0  0  0
 27 50  1  0  0  0  0
 28 51  1  0  0  0  0
 29 53  1  0  0  0  0
M  END
> <PUBCHEM_COMPOUND_CID>
54761306

> <PUBCHEM_COMPOUND_CANONICALIZED>
1

> <PUBCHEM_CACTVS_COMPLEXITY>
724

> <PUBCHEM_CACTVS_HBOND_ACCEPTOR>
7

> <PUBCHEM_CACTVS_HBOND_DONOR>
2

> <PUBCHEM_CACTVS_ROTATABLE_BOND>
4

> <PUBCHEM_CACTVS_SUBSKEYS>
AAADceB7sABAAAAAAAAAAAAAGAAAAWAAAAAsWLAAAAAAAFgB/gAAHgQQQAAADCjh3wa/sN/JlAqgAzZnZEDCgCmxArAJ2aA4ZJiKKOLg2NGHJAhokALYyCcQAAAOgAAAAAAAAAAAAAAAAAAAAAAAAAAAAA==

> <PUBCHEM_IUPAC_OPENEYE_NAME>
imino-methyl-[1-[6-[(3R)-3-methylmorpholin-4-yl]-2-(1H-pyrrolo[2,3-b]pyridin-4-yl)pyrimidin-4-yl]cyclopropyl]-oxo-lambda6-sulfane

> <PUBCHEM_IUPAC_CAS_NAME>
imino-methyl-[1-[6-[(3R)-3-methyl-4-morpholinyl]-2-(1H-pyrrolo[2,3-b]pyridin-4-yl)-4-pyrimidinyl]cyclopropyl]-oxo-lambda6-sulfane

> <PUBCHEM_IUPAC_NAME_MARKUP>
imino-methyl-[1-[6-[(3<I>R</I>)-3-methylmorpholin-4-yl]-2-(1<I>H</I>-pyrrolo[2,3-b]pyridin-4-yl)pyrimidin-4-yl]cyclopropyl]-oxo-&lambda;<SUP>6</SUP>-sulfane

> <PUBCHEM_IUPAC_NAME>
imino-methyl-[1-[6-[(3R)-3-methylmorpholin-4-yl]-2-(1H-pyrrolo[2,3-b]pyridin-4-yl)pyrimidin-4-yl]cyclopropyl]-oxo-lambda6-sulfane

> <PUBCHEM_IUPAC_SYSTEMATIC_NAME>
azanylidene-methyl-[1-[6-[(3R)-3-methylmorpholin-4-yl]-2-(1H-pyrrolo[2,3-b]pyridin-4-yl)pyrimidin-4-yl]cyclopropyl]-oxidanylidene-lambda6-sulfane

> <PUBCHEM_IUPAC_TRADITIONAL_NAME>
imino-keto-methyl-[1-[6-[(3R)-3-methylmorpholino]-2-(1H-pyrrolo[2,3-b]pyridin-4-yl)pyrimidin-4-yl]cyclopropyl]-lambda6-sulfane

> <PUBCHEM_IUPAC_INCHI>
InChI=1S/C20H24N6O2S/c1-13-12-28-10-9-26(13)17-11-16(20(5-6-20)29(2,21)27)24-19(25-17)15-4-8-23-18-14(15)3-7-22-18/h3-4,7-8,11,13,21H,5-6,9-10,12H2,1-2H3,(H,22,23)/t13-,29-/m1/s1

> <PUBCHEM_IUPAC_INCHIKEY>
OHUHVTCQTUDPIJ-JYCIKRDWSA-N

> <PUBCHEM_XLOGP3_AA>
2.6

> <PUBCHEM_EXACT_MASS>
412.168145

> <PUBCHEM_MOLECULAR_FORMULA>
C20H24N6O2S

> <PUBCHEM_MOLECULAR_WEIGHT>
412.5

> <PUBCHEM_OPENEYE_CAN_SMILES>
CC1COCCN1C2=NC(=NC(=C2)C3(CC3)S(=N)(=O)C)C4=C5C=CNC5=NC=C4

> <PUBCHEM_OPENEYE_ISO_SMILES>
C[C@@H]1COCCN1C2=NC(=NC(=C2)C3(CC3)[S@](=N)(=O)C)C4=C5C=CNC5=NC=C4

> <PUBCHEM_CACTVS_TPSA>
116

> <PUBCHEM_MONOISOTOPIC_WEIGHT>
412.168145

> <PUBCHEM_TOTAL_CHARGE>
0

> <PUBCHEM_HEAVY_ATOM_COUNT>
29

> <PUBCHEM_ATOM_DEF_STEREO_COUNT>
2

> <PUBCHEM_ATOM_UDEF_STEREO_COUNT>
0

> <PUBCHEM_BOND_DEF_STEREO_COUNT>
0

> <PUBCHEM_BOND_UDEF_STEREO_COUNT>
0

> <PUBCHEM_ISOTOPIC_ATOM_COUNT>
0

> <PUBCHEM_COMPONENT_COUNT>
1

> <PUBCHEM_CACTVS_TAUTO_COUNT>
-1

> <PUBCHEM_COORDINATE_TYPE>
1
5
255

> <PUBCHEM_BONDANNOTATIONS>
1  14  5
13  15  8
15  16  8
18  23  5
21  24  8
21  25  8
24  26  8
24  27  8
25  28  8
27  29  8
5  13  8
5  17  8
7  16  8
7  17  8
8  26  8
8  29  8
9  26  8
9  28  8

$$$$
51039095
  -OEChem-02182015172D

 67 70  0     1  0  0  0  0  0999 V2000
    4.5981    0.6978    0.0000 O   0  0  0  0  0  0  0  0  0  0  0  0
    3.9092   -7.0088    0.0000 O   0  0  0  0  0  0  0  0  0  0  0  0
    6.7117   -4.9726    0.0000 O   0  0  0  0  0  0  0  0  0  0  0  0
    3.7320    5.1978    0.0000 N   0  0  0  0  0  0  0  0  0  0  0  0
    3.7320    7.1978    0.0000 N   0  0  0  0  0  0  0  0  0  0  0  0
    2.8660    0.6978    0.0000 N   0  0  0  0  0  0  0  0  0  0  0  0
    2.3660   -1.8411    0.0000 N   0  0  0  0  0  0  0  0  0  0  0  0
    2.0570   -0.8900    0.0000 N   0  0  0  0  0  0  0  0  0  0  0  0
    2.8660    6.6978    0.0000 C   0  0  1  0  0  0  0  0  0  0  0  0
    4.5981    6.6978    0.0000 C   0  0  2  0  0  0  0  0  0  0  0  0
    2.8660    5.6978    0.0000 C   0  0  0  0  0  0  0  0  0  0  0  0
    4.5981    5.6978    0.0000 C   0  0  0  0  0  0  0  0  0  0  0  0
    2.0000    7.1978    0.0000 C   0  0  0  0  0  0  0  0  0  0  0  0
    5.4641    7.1978    0.0000 C   0  0  0  0  0  0  0  0  0  0  0  0
    3.7320    4.1978    0.0000 C   0  0  0  0  0  0  0  0  0  0  0  0
    2.8660    3.6978    0.0000 C   0  0  0  0  0  0  0  0  0  0  0  0
    4.5981    3.6978    0.0000 C   0  0  0  0  0  0  0  0  0  0  0  0
    2.8660    2.6978    0.0000 C   0  0  0  0  0  0  0  0  0  0  0  0
    4.5981    2.6978    0.0000 C   0  0  0  0  0  0  0  0  0  0  0  0
    3.7320    2.1978    0.0000 C   0  0  0  0  0  0  0  0  0  0  0  0
    3.7320    1.1978    0.0000 C   0  0  0  0  0  0  0  0  0  0  0  0
    3.9538   -2.6501    0.0000 C   0  0  0  0  0  0  0  0  0  0  0  0
    3.5471   -3.5636    0.0000 C   0  0  0  0  0  0  0  0  0  0  0  0
    3.3660   -1.8411    0.0000 C   0  0  0  0  0  0  0  0  0  0  0  0
    2.8660   -0.3022    0.0000 C   0  0  0  0  0  0  0  0  0  0  0  0
    4.1349   -4.3726    0.0000 C   0  0  0  0  0  0  0  0  0  0  0  0
    3.6750   -0.8900    0.0000 C   0  0  0  0  0  0  0  0  0  0  0  0
    5.1294   -4.2681    0.0000 C   0  0  0  0  0  0  0  0  0  0  0  0
    3.7281   -5.2862    0.0000 C   0  0  0  0  0  0  0  0  0  0  0  0
    4.3159   -6.0952    0.0000 C   0  0  0  0  0  0  0  0  0  0  0  0
    5.7172   -5.0771    0.0000 C   0  0  0  0  0  0  0  0  0  0  0  0
    5.3104   -5.9907    0.0000 C   0  0  0  0  0  0  0  0  0  0  0  0
    4.4970   -7.8178    0.0000 C   0  0  0  0  0  0  0  0  0  0  0  0
    7.2995   -5.7816    0.0000 C   0  0  0  0  0  0  0  0  0  0  0  0
    2.8660    7.3178    0.0000 H   0  0  0  0  0  0  0  0  0  0  0  0
    4.5981    7.3178    0.0000 H   0  0  0  0  0  0  0  0  0  0  0  0
    2.2554    5.8054    0.0000 H   0  0  0  0  0  0  0  0  0  0  0  0
    2.6540    5.1152    0.0000 H   0  0  0  0  0  0  0  0  0  0  0  0
    4.8101    5.1152    0.0000 H   0  0  0  0  0  0  0  0  0  0  0  0
    5.2087    5.8054    0.0000 H   0  0  0  0  0  0  0  0  0  0  0  0
    3.7320    7.8178    0.0000 H   0  0  0  0  0  0  0  0  0  0  0  0
    2.3100    7.7347    0.0000 H   0  0  0  0  0  0  0  0  0  0  0  0
    1.4631    7.5078    0.0000 H   0  0  0  0  0  0  0  0  0  0  0  0
    1.6900    6.6608    0.0000 H   0  0  0  0  0  0  0  0  0  0  0  0
    5.7741    6.6608    0.0000 H   0  0  0  0  0  0  0  0  0  0  0  0
    6.0010    7.5078    0.0000 H   0  0  0  0  0  0  0  0  0  0  0  0
    5.1541    7.7347    0.0000 H   0  0  0  0  0  0  0  0  0  0  0  0
    2.3291    4.0078    0.0000 H   0  0  0  0  0  0  0  0  0  0  0  0
    5.1350    4.0078    0.0000 H   0  0  0  0  0  0  0  0  0  0  0  0
    2.3291    2.3878    0.0000 H   0  0  0  0  0  0  0  0  0  0  0  0
    5.1350    2.3878    0.0000 H   0  0  0  0  0  0  0  0  0  0  0  0
    4.4678   -2.9968    0.0000 H   0  0  0  0  0  0  0  0  0  0  0  0
    4.3845   -2.2041    0.0000 H   0  0  0  0  0  0  0  0  0  0  0  0
    3.0331   -3.2169    0.0000 H   0  0  0  0  0  0  0  0  0  0  0  0
    3.1164   -4.0096    0.0000 H   0  0  0  0  0  0  0  0  0  0  0  0
    2.3291    1.0078    0.0000 H   0  0  0  0  0  0  0  0  0  0  0  0
    4.2647   -0.6984    0.0000 H   0  0  0  0  0  0  0  0  0  0  0  0
    2.0016   -2.3427    0.0000 H   0  0  0  0  0  0  0  0  0  0  0  0
    5.3816   -3.7017    0.0000 H   0  0  0  0  0  0  0  0  0  0  0  0
    3.1115   -5.3510    0.0000 H   0  0  0  0  0  0  0  0  0  0  0  0
    5.6749   -6.4923    0.0000 H   0  0  0  0  0  0  0  0  0  0  0  0
    3.9954   -8.1822    0.0000 H   0  0  0  0  0  0  0  0  0  0  0  0
    4.8614   -8.3194    0.0000 H   0  0  0  0  0  0  0  0  0  0  0  0
    4.9986   -7.4534    0.0000 H   0  0  0  0  0  0  0  0  0  0  0  0
    6.7979   -6.1460    0.0000 H   0  0  0  0  0  0  0  0  0  0  0  0
    7.6639   -6.2832    0.0000 H   0  0  0  0  0  0  0  0  0  0  0  0
    7.8011   -5.4172    0.0000 H   0  0  0  0  0  0  0  0  0  0  0  0
  1 21  2  0  0  0  0
  2 30  1  0  0  0  0
  2 33  1  0  0  0  0
  3 31  1  0  0  0  0
  3 34  1  0  0  0  0
  4 11  1  0  0  0  0
  4 12  1  0  0  0  0
  4 15  1  0  0  0  0
  5  9  1  0  0  0  0
  5 10  1  0  0  0  0
  5 41  1  0  0  0  0
  6 21  1  0  0  0  0
  6 25  1  0  0  0  0
  6 56  1  0  0  0  0
  7  8  1  0  0  0  0
  7 24  1  0  0  0  0
  7 58  1  0  0  0  0
  8 25  2  0  0  0  0
  9 11  1  0  0  0  0
  9 13  1  1  0  0  0
  9 35  1  0  0  0  0
 10 12  1  0  0  0  0
 10 14  1  1  0  0  0
 10 36  1  0  0  0  0
 11 37  1  0  0  0  0
 11 38  1  0  0  0  0
 12 39  1  0  0  0  0
 12 40  1  0  0  0  0
 13 42  1  0  0  0  0
 13 43  1  0  0  0  0
 13 44  1  0  0  0  0
 14 45  1  0  0  0  0
 14 46  1  0  0  0  0
 14 47  1  0  0  0  0
 15 16  2  0  0  0  0
 15 17  1  0  0  0  0
 16 18  1  0  0  0  0
 16 48  1  0  0  0  0
 17 19  2  0  0  0  0
 17 49  1  0  0  0  0
 18 20  2  0  0  0  0
 18 50  1  0  0  0  0
 19 20  1  0  0  0  0
 19 51  1  0  0  0  0
 20 21  1  0  0  0  0
 22 23  1  0  0  0  0
 22 24  1  0  0  0  0
 22 52  1  0  0  0  0
 22 53  1  0  0  0  0
 23 26  1  0  0  0  0
 23 54  1  0  0  0  0
 23 55  1  0  0  0  0
 24 27  2  0  0  0  0
 25 27  1  0  0  0  0
 26 28  2  0  0  0  0
 26 29  1  0  0  0  0
 27 57  1  0  0  0  0
 28 31  1  0  0  0  0
 28 59  1  0  0  0  0
 29 30  2  0  0  0  0
 29 60  1  0  0  0  0
 30 32  1  0  0  0  0
 31 32  2  0  0  0  0
 32 61  1  0  0  0  0
 33 62  1  0  0  0  0
 33 63  1  0  0  0  0
 33 64  1  0  0  0  0
 34 65  1  0  0  0  0
 34 66  1  0  0  0  0
 34 67  1  0  0  0  0
M  END
> <PUBCHEM_COMPOUND_CID>
51039095

> <PUBCHEM_COMPOUND_CANONICALIZED>
1

> <PUBCHEM_CACTVS_COMPLEXITY>
622

> <PUBCHEM_CACTVS_HBOND_ACCEPTOR>
6

> <PUBCHEM_CACTVS_HBOND_DONOR>
3

> <PUBCHEM_CACTVS_ROTATABLE_BOND>
8

> <PUBCHEM_CACTVS_SUBSKEYS>
AAADcfB7sAAAAAAAAAAAAAAAAAAAAWAAAAA8YIAAAAAAAAAB0AAAHgAYAAAADCzBngYz9pPjBACqAydycACSDAIlIgAduaE+bNiMZzLE/duUtSh13RfI6YeY6fyeCAABCAAAAAAQAAIQAAAAAAAAAAAAAA==

> <PUBCHEM_IUPAC_OPENEYE_NAME>
N-[5-[2-(3,5-dimethoxyphenyl)ethyl]-1H-pyrazol-3-yl]-4-[(3S,5R)-3,5-dimethylpiperazin-1-yl]benzamide

> <PUBCHEM_IUPAC_CAS_NAME>
N-[5-[2-(3,5-dimethoxyphenyl)ethyl]-1H-pyrazol-3-yl]-4-[(3S,5R)-3,5-dimethyl-1-piperazinyl]benzamide

> <PUBCHEM_IUPAC_NAME_MARKUP>
<I>N</I>-[5-[2-(3,5-dimethoxyphenyl)ethyl]-1<I>H</I>-pyrazol-3-yl]-4-[(3<I>S</I>,5<I>R</I>)-3,5-dimethylpiperazin-1-yl]benzamide

> <PUBCHEM_IUPAC_NAME>
N-[5-[2-(3,5-dimethoxyphenyl)ethyl]-1H-pyrazol-3-yl]-4-[(3S,5R)-3,5-dimethylpiperazin-1-yl]benzamide

> <PUBCHEM_IUPAC_SYSTEMATIC_NAME>
N-[5-[2-(3,5-dimethoxyphenyl)ethyl]-1H-pyrazol-3-yl]-4-[(3S,5R)-3,5-dimethylpiperazin-1-yl]benzamide

> <PUBCHEM_IUPAC_TRADITIONAL_NAME>
N-[5-[2-(3,5-dimethoxyphenyl)ethyl]-1H-pyrazol-3-yl]-4-[(3S,5R)-3,5-dimethylpiperazino]benzamide

> <PUBCHEM_IUPAC_INCHI>
InChI=1S/C26H33N5O3/c1-17-15-31(16-18(2)27-17)22-9-6-20(7-10-22)26(32)28-25-13-21(29-30-25)8-5-19-11-23(33-3)14-24(12-19)34-4/h6-7,9-14,17-18,27H,5,8,15-16H2,1-4H3,(H2,28,29,30,32)/t17-,18+

> <PUBCHEM_IUPAC_INCHIKEY>
VRQMAABPASPXMW-HDICACEKSA-N

> <PUBCHEM_XLOGP3_AA>
3.9

> <PUBCHEM_EXACT_MASS>
463.25834

> <PUBCHEM_MOLECULAR_FORMULA>
C26H33N5O3

> <PUBCHEM_MOLECULAR_WEIGHT>
463.6

> <PUBCHEM_OPENEYE_CAN_SMILES>
CC1CN(CC(N1)C)C2=CC=C(C=C2)C(=O)NC3=NNC(=C3)CCC4=CC(=CC(=C4)OC)OC

> <PUBCHEM_OPENEYE_ISO_SMILES>
C[C@@H]1CN(C[C@@H](N1)C)C2=CC=C(C=C2)C(=O)NC3=NNC(=C3)CCC4=CC(=CC(=C4)OC)OC

> <PUBCHEM_CACTVS_TPSA>
91.5

> <PUBCHEM_MONOISOTOPIC_WEIGHT>
463.25834

> <PUBCHEM_TOTAL_CHARGE>
0

> <PUBCHEM_HEAVY_ATOM_COUNT>
34

> <PUBCHEM_ATOM_DEF_STEREO_COUNT>
2

> <PUBCHEM_ATOM_UDEF_STEREO_COUNT>
0

> <PUBCHEM_BOND_DEF_STEREO_COUNT>
0

> <PUBCHEM_BOND_UDEF_STEREO_COUNT>
0

> <PUBCHEM_ISOTOPIC_ATOM_COUNT>
0

> <PUBCHEM_COMPONENT_COUNT>
1

> <PUBCHEM_CACTVS_TAUTO_COUNT>
-1

> <PUBCHEM_COORDINATE_TYPE>
1
5
255

> <PUBCHEM_BONDANNOTATIONS>
10  14  5
15  16  8
15  17  8
16  18  8
17  19  8
18  20  8
19  20  8
24  27  8
25  27  8
26  28  8
26  29  8
28  31  8
29  30  8
30  32  8
31  32  8
7  24  8
7  8  8
8  25  8
9  13  5

$$$$
11152667
  -OEChem-02182015172D

 44 46  0     1  0  0  0  0  0999 V2000
    6.0600   -0.2997    0.0000 S   0  0  0  0  0  0  0  0  0  0  0  0
    5.1370   -3.8874    0.0000 F   0  0  0  0  0  0  0  0  0  0  0  0
    6.1880    2.3739    0.0000 O   0  0  0  0  0  0  0  0  0  0  0  0
    9.3580    0.4423    0.0000 O   0  0  0  0  0  0  0  0  0  0  0  0
    2.6166    2.8694    0.0000 N   0  0  0  0  0  0  0  0  0  0  0  0
    4.7867    1.3559    0.0000 N   0  0  0  0  0  0  0  0  0  0  0  0
    7.9568    1.4604    0.0000 N   0  0  0  0  0  0  0  0  0  0  0  0
    9.5391    2.1649    0.0000 N   0  0  0  0  0  0  0  0  0  0  0  0
    4.1989    2.1649    0.0000 C   0  0  1  0  0  0  0  0  0  0  0  0
    4.6056    3.0784    0.0000 C   0  0  0  0  0  0  0  0  0  0  0  0
    4.0179    3.8874    0.0000 C   0  0  0  0  0  0  0  0  0  0  0  0
    3.2044    2.0604    0.0000 C   0  0  0  0  0  0  0  0  0  0  0  0
    3.0233    3.7829    0.0000 C   0  0  0  0  0  0  0  0  0  0  0  0
    5.7812    1.4604    0.0000 C   0  0  0  0  0  0  0  0  0  0  0  0
    6.3690    0.6514    0.0000 C   0  0  0  0  0  0  0  0  0  0  0  0
    7.3690    0.6514    0.0000 C   0  0  0  0  0  0  0  0  0  0  0  0
    6.8690   -0.8875    0.0000 C   0  0  0  0  0  0  0  0  0  0  0  0
    7.6780   -0.2997    0.0000 C   0  0  0  0  0  0  0  0  0  0  0  0
    6.8690   -1.8874    0.0000 C   0  0  0  0  0  0  0  0  0  0  0  0
    6.0030   -2.3874    0.0000 C   0  0  0  0  0  0  0  0  0  0  0  0
    7.7350   -2.3874    0.0000 C   0  0  0  0  0  0  0  0  0  0  0  0
    8.9513    1.3559    0.0000 C   0  0  0  0  0  0  0  0  0  0  0  0
    6.0030   -3.3874    0.0000 C   0  0  0  0  0  0  0  0  0  0  0  0
    7.7350   -3.3874    0.0000 C   0  0  0  0  0  0  0  0  0  0  0  0
    6.8690   -3.8874    0.0000 C   0  0  0  0  0  0  0  0  0  0  0  0
    3.9467    1.5985    0.0000 H   0  0  0  0  0  0  0  0  0  0  0  0
    5.1196    2.7317    0.0000 H   0  0  0  0  0  0  0  0  0  0  0  0
    5.0363    3.5244    0.0000 H   0  0  0  0  0  0  0  0  0  0  0  0
    4.5751    4.1592    0.0000 H   0  0  0  0  0  0  0  0  0  0  0  0
    3.8470    4.4834    0.0000 H   0  0  0  0  0  0  0  0  0  0  0  0
    2.6471    1.7886    0.0000 H   0  0  0  0  0  0  0  0  0  0  0  0
    3.3753    1.4644    0.0000 H   0  0  0  0  0  0  0  0  0  0  0  0
    3.0666    4.4014    0.0000 H   0  0  0  0  0  0  0  0  0  0  0  0
    2.4218    3.9329    0.0000 H   0  0  0  0  0  0  0  0  0  0  0  0
    2.0000    2.8046    0.0000 H   0  0  0  0  0  0  0  0  0  0  0  0
    4.5345    0.7895    0.0000 H   0  0  0  0  0  0  0  0  0  0  0  0
    8.2677   -0.4913    0.0000 H   0  0  0  0  0  0  0  0  0  0  0  0
    7.7046    2.0268    0.0000 H   0  0  0  0  0  0  0  0  0  0  0  0
    5.4660   -2.0775    0.0000 H   0  0  0  0  0  0  0  0  0  0  0  0
    8.2720   -2.0775    0.0000 H   0  0  0  0  0  0  0  0  0  0  0  0
    8.2720   -3.6974    0.0000 H   0  0  0  0  0  0  0  0  0  0  0  0
    6.8690   -4.5075    0.0000 H   0  0  0  0  0  0  0  0  0  0  0  0
   10.1557    2.1001    0.0000 H   0  0  0  0  0  0  0  0  0  0  0  0
    9.2869    2.7313    0.0000 H   0  0  0  0  0  0  0  0  0  0  0  0
  1 15  1  0  0  0  0
  1 17  1  0  0  0  0
  2 23  1  0  0  0  0
  3 14  2  0  0  0  0
  4 22  2  0  0  0  0
  5 12  1  0  0  0  0
  5 13  1  0  0  0  0
  5 35  1  0  0  0  0
  9  6  1  6  0  0  0
  6 14  1  0  0  0  0
  6 36  1  0  0  0  0
  7 16  1  0  0  0  0
  7 22  1  0  0  0  0
  7 38  1  0  0  0  0
  8 22  1  0  0  0  0
  8 43  1  0  0  0  0
  8 44  1  0  0  0  0
  9 10  1  0  0  0  0
  9 12  1  0  0  0  0
  9 26  1  0  0  0  0
 10 11  1  0  0  0  0
 10 27  1  0  0  0  0
 10 28  1  0  0  0  0
 11 13  1  0  0  0  0
 11 29  1  0  0  0  0
 11 30  1  0  0  0  0
 12 31  1  0  0  0  0
 12 32  1  0  0  0  0
 13 33  1  0  0  0  0
 13 34  1  0  0  0  0
 14 15  1  0  0  0  0
 15 16  2  0  0  0  0
 16 18  1  0  0  0  0
 17 18  2  0  0  0  0
 17 19  1  0  0  0  0
 18 37  1  0  0  0  0
 19 20  2  0  0  0  0
 19 21  1  0  0  0  0
 20 23  1  0  0  0  0
 20 39  1  0  0  0  0
 21 24  2  0  0  0  0
 21 40  1  0  0  0  0
 23 25  2  0  0  0  0
 24 25  1  0  0  0  0
 24 41  1  0  0  0  0
 25 42  1  0  0  0  0
M  END
> <PUBCHEM_COMPOUND_CID>
11152667

> <PUBCHEM_COMPOUND_CANONICALIZED>
1

> <PUBCHEM_CACTVS_COMPLEXITY>
495

> <PUBCHEM_CACTVS_HBOND_ACCEPTOR>
5

> <PUBCHEM_CACTVS_HBOND_DONOR>
4

> <PUBCHEM_CACTVS_ROTATABLE_BOND>
4

> <PUBCHEM_CACTVS_SUBSKEYS>
AAADceB7sQBAAAAAAAAAAAAAAAAAASAAAAA8QAAAAAAAAAABwAAAHwQQAAAADCjB2AwxwYLAAAiMAiVSUACDAIAlChBIiJ0IZMiIYDrg1ZGUIYxglgLoyWcYiMCOAAAAAAAAAAAAAAAAAAAAAAAAAAAAAA==

> <PUBCHEM_IUPAC_OPENEYE_NAME>
5-(3-fluorophenyl)-N-[(3S)-3-piperidyl]-3-ureido-thiophene-2-carboxamide

> <PUBCHEM_IUPAC_CAS_NAME>
3-(carbamoylamino)-5-(3-fluorophenyl)-N-[(3S)-3-piperidinyl]-2-thiophenecarboxamide

> <PUBCHEM_IUPAC_NAME_MARKUP>
3-(carbamoylamino)-5-(3-fluorophenyl)-<I>N</I>-[(3<I>S</I>)-piperidin-3-yl]thiophene-2-carboxamide

> <PUBCHEM_IUPAC_NAME>
3-(carbamoylamino)-5-(3-fluorophenyl)-N-[(3S)-piperidin-3-yl]thiophene-2-carboxamide

> <PUBCHEM_IUPAC_SYSTEMATIC_NAME>
3-(aminocarbonylamino)-5-(3-fluorophenyl)-N-[(3S)-piperidin-3-yl]thiophene-2-carboxamide

> <PUBCHEM_IUPAC_TRADITIONAL_NAME>
5-(3-fluorophenyl)-N-[(3S)-3-piperidyl]-3-ureido-thiophene-2-carboxamide

> <PUBCHEM_IUPAC_INCHI>
InChI=1S/C17H19FN4O2S/c18-11-4-1-3-10(7-11)14-8-13(22-17(19)24)15(25-14)16(23)21-12-5-2-6-20-9-12/h1,3-4,7-8,12,20H,2,5-6,9H2,(H,21,23)(H3,19,22,24)/t12-/m0/s1

> <PUBCHEM_IUPAC_INCHIKEY>
IAYGCINLNONXHY-LBPRGKRZSA-N

> <PUBCHEM_XLOGP3_AA>
2.3

> <PUBCHEM_EXACT_MASS>
362.121275

> <PUBCHEM_MOLECULAR_FORMULA>
C17H19FN4O2S

> <PUBCHEM_MOLECULAR_WEIGHT>
362.4

> <PUBCHEM_OPENEYE_CAN_SMILES>
C1CC(CNC1)NC(=O)C2=C(C=C(S2)C3=CC(=CC=C3)F)NC(=O)N

> <PUBCHEM_OPENEYE_ISO_SMILES>
C1C[C@@H](CNC1)NC(=O)C2=C(C=C(S2)C3=CC(=CC=C3)F)NC(=O)N

> <PUBCHEM_CACTVS_TPSA>
125

> <PUBCHEM_MONOISOTOPIC_WEIGHT>
362.121275

> <PUBCHEM_TOTAL_CHARGE>
0

> <PUBCHEM_HEAVY_ATOM_COUNT>
25

> <PUBCHEM_ATOM_DEF_STEREO_COUNT>
1

> <PUBCHEM_ATOM_UDEF_STEREO_COUNT>
0

> <PUBCHEM_BOND_DEF_STEREO_COUNT>
0

> <PUBCHEM_BOND_UDEF_STEREO_COUNT>
0

> <PUBCHEM_ISOTOPIC_ATOM_COUNT>
0

> <PUBCHEM_COMPONENT_COUNT>
1

> <PUBCHEM_CACTVS_TAUTO_COUNT>
-1

> <PUBCHEM_COORDINATE_TYPE>
1
5
255

> <PUBCHEM_BONDANNOTATIONS>
1  15  8
1  17  8
15  16  8
16  18  8
17  18  8
19  20  8
19  21  8
20  23  8
21  24  8
23  25  8
24  25  8
9  6  6

$$$$
148124
  -OEChem-02182015172D

111116  0     1  0  0  0  0  0999 V2000
    5.1483   -6.0952    0.0000 O   0  0  0  0  0  0  0  0  0  0  0  0
    6.3178   -4.4857    0.0000 O   0  0  0  0  0  0  0  0  0  0  0  0
    7.0057   -3.6333    0.0000 O   0  0  0  0  0  0  0  0  0  0  0  0
    7.4821   -2.2868    0.0000 O   0  0  0  0  0  0  0  0  0  0  0  0
    2.4962   -3.4386    0.0000 O   0  0  0  0  0  0  0  0  0  0  0  0
    2.8690   -2.2868    0.0000 O   0  0  0  0  0  0  0  0  0  0  0  0
    3.5446   -0.6558    0.0000 O   0  0  0  0  0  0  0  0  0  0  0  0
    7.5875    0.1252    0.0000 O   0  0  0  0  0  0  0  0  0  0  0  0
    7.6038   -5.6460    0.0000 O   0  0  0  0  0  0  0  0  0  0  0  0
    8.4245   -2.6398    0.0000 O   0  0  0  0  0  0  0  0  0  0  0  0
    6.3628    1.3499    0.0000 O   0  0  0  0  0  0  0  0  0  0  0  0
    9.0017    1.5394    0.0000 O   0  0  0  0  0  0  0  0  0  0  0  0
    5.5863    4.2477    0.0000 O   0  0  0  0  0  0  0  0  0  0  0  0
    7.2593    4.6960    0.0000 O   0  0  0  0  0  0  0  0  0  0  0  0
    6.8110    3.0229    0.0000 N   0  0  0  0  0  0  0  0  0  0  0  0
    5.1755   -3.5934    0.0000 C   0  0  2  0  0  0  0  0  0  0  0  0
    5.3274   -4.6239    0.0000 C   0  0  2  0  0  0  0  0  0  0  0  0
    4.2517   -3.2107    0.0000 C   0  0  1  0  0  0  0  0  0  0  0  0
    4.5059   -5.2643    0.0000 C   0  0  1  0  0  0  0  0  0  0  0  0
    6.0994   -3.2107    0.0000 C   0  0  1  0  0  0  0  0  0  0  0  0
    6.4821   -2.2868    0.0000 C   0  0  2  0  0  0  0  0  0  0  0  0
    3.4156   -3.8320    0.0000 C   0  0  2  0  0  0  0  0  0  0  0  0
    3.5436   -4.8657    0.0000 C   0  0  0  0  0  0  0  0  0  0  0  0
    6.0994   -1.3629    0.0000 C   0  0  0  0  0  0  0  0  0  0  0  0
    5.9766   -5.4495    0.0000 C   0  0  0  0  0  0  0  0  0  0  0  0
    3.8690   -2.2868    0.0000 C   0  0  0  0  0  0  0  0  0  0  0  0
    7.1552   -1.5451    0.0000 C   0  0  0  0  0  0  0  0  0  0  0  0
    5.1755   -0.9802    0.0000 C   0  0  0  0  0  0  0  0  0  0  0  0
    3.3278   -2.8280    0.0000 C   0  0  0  0  0  0  0  0  0  0  0  0
    4.2517   -1.3629    0.0000 C   0  0  1  0  0  0  0  0  0  0  0  0
    6.8804   -0.5819    0.0000 C   0  0  1  0  0  0  0  0  0  0  0  0
    5.9172   -0.3071    0.0000 C   0  0  0  0  0  0  0  0  0  0  0  0
    6.3971   -0.2521    0.0000 C   0  0  0  0  0  0  0  0  0  0  0  0
    7.2102   -1.0653    0.0000 C   0  0  0  0  0  0  0  0  0  0  0  0
    5.6897    0.6667    0.0000 C   0  0  0  0  0  0  0  0  0  0  0  0
    6.6259   -5.4371    0.0000 C   0  0  0  0  0  0  0  0  0  0  0  0
    8.0019   -3.5462    0.0000 C   0  0  0  0  0  0  0  0  0  0  0  0
    5.9560   -6.1795    0.0000 C   0  0  0  0  0  0  0  0  0  0  0  0
    7.3287    1.0911    0.0000 C   0  0  0  0  0  0  0  0  0  0  0  0
    8.5755   -4.3653    0.0000 C   0  0  0  0  0  0  0  0  0  0  0  0
    8.0358    1.7982    0.0000 C   0  0  1  0  0  0  0  0  0  0  0  0
    9.5717   -4.2781    0.0000 C   0  0  0  0  0  0  0  0  0  0  0  0
    8.1530   -5.2716    0.0000 C   0  0  0  0  0  0  0  0  0  0  0  0
    7.7770    2.7641    0.0000 C   0  0  2  0  0  0  0  0  0  0  0  0
   10.1453   -5.0972    0.0000 C   0  0  0  0  0  0  0  0  0  0  0  0
    8.7266   -6.0908    0.0000 C   0  0  0  0  0  0  0  0  0  0  0  0
    9.7228   -6.0035    0.0000 C   0  0  0  0  0  0  0  0  0  0  0  0
    8.4841    3.4712    0.0000 C   0  0  0  0  0  0  0  0  0  0  0  0
    9.4500    3.2124    0.0000 C   0  0  0  0  0  0  0  0  0  0  0  0
    8.2253    4.4372    0.0000 C   0  0  0  0  0  0  0  0  0  0  0  0
    6.5522    3.9889    0.0000 C   0  0  0  0  0  0  0  0  0  0  0  0
   10.1571    3.9195    0.0000 C   0  0  0  0  0  0  0  0  0  0  0  0
    8.9324    5.1443    0.0000 C   0  0  0  0  0  0  0  0  0  0  0  0
    9.8983    4.8854    0.0000 C   0  0  0  0  0  0  0  0  0  0  0  0
    5.3275    5.2136    0.0000 C   0  0  0  0  0  0  0  0  0  0  0  0
    5.0687    6.1795    0.0000 C   0  0  0  0  0  0  0  0  0  0  0  0
    4.3616    4.9548    0.0000 C   0  0  0  0  0  0  0  0  0  0  0  0
    6.2934    5.4724    0.0000 C   0  0  0  0  0  0  0  0  0  0  0  0
    5.9608   -3.9186    0.0000 H   0  0  0  0  0  0  0  0  0  0  0  0
    3.9897   -5.9396    0.0000 H   0  0  0  0  0  0  0  0  0  0  0  0
    6.6773   -2.9860    0.0000 H   0  0  0  0  0  0  0  0  0  0  0  0
    2.9201   -4.2046    0.0000 H   0  0  0  0  0  0  0  0  0  0  0  0
    2.9243   -4.8355    0.0000 H   0  0  0  0  0  0  0  0  0  0  0  0
    3.4078   -5.4707    0.0000 H   0  0  0  0  0  0  0  0  0  0  0  0
    6.3585   -5.9379    0.0000 H   0  0  0  0  0  0  0  0  0  0  0  0
    6.4645   -5.0669    0.0000 H   0  0  0  0  0  0  0  0  0  0  0  0
    7.5297   -2.0392    0.0000 H   0  0  0  0  0  0  0  0  0  0  0  0
    7.7099   -1.2681    0.0000 H   0  0  0  0  0  0  0  0  0  0  0  0
    3.5650   -2.2552    0.0000 H   0  0  0  0  0  0  0  0  0  0  0  0
    2.7550   -2.5907    0.0000 H   0  0  0  0  0  0  0  0  0  0  0  0
    3.0905   -3.4008    0.0000 H   0  0  0  0  0  0  0  0  0  0  0  0
    4.3726   -0.7548    0.0000 H   0  0  0  0  0  0  0  0  0  0  0  0
    7.4806   -0.7376    0.0000 H   0  0  0  0  0  0  0  0  0  0  0  0
    6.9959   -0.4126    0.0000 H   0  0  0  0  0  0  0  0  0  0  0  0
    6.5575    0.3468    0.0000 H   0  0  0  0  0  0  0  0  0  0  0  0
    5.7982   -0.0916    0.0000 H   0  0  0  0  0  0  0  0  0  0  0  0
    7.3707   -1.6642    0.0000 H   0  0  0  0  0  0  0  0  0  0  0  0
    7.8091   -0.9048    0.0000 H   0  0  0  0  0  0  0  0  0  0  0  0
    7.0498   -0.4664    0.0000 H   0  0  0  0  0  0  0  0  0  0  0  0
    7.7921   -1.7499    0.0000 H   0  0  0  0  0  0  0  0  0  0  0  0
    2.0000   -3.8104    0.0000 H   0  0  0  0  0  0  0  0  0  0  0  0
    6.2935    0.8077    0.0000 H   0  0  0  0  0  0  0  0  0  0  0  0
    5.5487    1.2704    0.0000 H   0  0  0  0  0  0  0  0  0  0  0  0
    5.0860    0.5256    0.0000 H   0  0  0  0  0  0  0  0  0  0  0  0
    3.7050   -0.0569    0.0000 H   0  0  0  0  0  0  0  0  0  0  0  0
    5.4957   -5.7642    0.0000 H   0  0  0  0  0  0  0  0  0  0  0  0
    5.5406   -6.6399    0.0000 H   0  0  0  0  0  0  0  0  0  0  0  0
    6.4163   -6.5949    0.0000 H   0  0  0  0  0  0  0  0  0  0  0  0
    8.4742    2.2366    0.0000 H   0  0  0  0  0  0  0  0  0  0  0  0
    9.8337   -3.7161    0.0000 H   0  0  0  0  0  0  0  0  0  0  0  0
    7.5353   -5.3257    0.0000 H   0  0  0  0  0  0  0  0  0  0  0  0
    7.6165    3.3630    0.0000 H   0  0  0  0  0  0  0  0  0  0  0  0
   10.7630   -5.0431    0.0000 H   0  0  0  0  0  0  0  0  0  0  0  0
    8.4646   -6.6527    0.0000 H   0  0  0  0  0  0  0  0  0  0  0  0
    9.1622    0.9405    0.0000 H   0  0  0  0  0  0  0  0  0  0  0  0
   10.0784   -6.5114    0.0000 H   0  0  0  0  0  0  0  0  0  0  0  0
    6.3726    2.5845    0.0000 H   0  0  0  0  0  0  0  0  0  0  0  0
    9.6105    2.6135    0.0000 H   0  0  0  0  0  0  0  0  0  0  0  0
    7.6264    4.5976    0.0000 H   0  0  0  0  0  0  0  0  0  0  0  0
   10.7560    3.7590    0.0000 H   0  0  0  0  0  0  0  0  0  0  0  0
    8.7719    5.7431    0.0000 H   0  0  0  0  0  0  0  0  0  0  0  0
   10.3367    5.3238    0.0000 H   0  0  0  0  0  0  0  0  0  0  0  0
    5.6675    6.3400    0.0000 H   0  0  0  0  0  0  0  0  0  0  0  0
    4.9082    6.7784    0.0000 H   0  0  0  0  0  0  0  0  0  0  0  0
    4.4698    6.0191    0.0000 H   0  0  0  0  0  0  0  0  0  0  0  0
    4.2011    5.5537    0.0000 H   0  0  0  0  0  0  0  0  0  0  0  0
    3.7627    4.7943    0.0000 H   0  0  0  0  0  0  0  0  0  0  0  0
    4.5220    4.3559    0.0000 H   0  0  0  0  0  0  0  0  0  0  0  0
    6.4539    4.8736    0.0000 H   0  0  0  0  0  0  0  0  0  0  0  0
    6.8923    5.6329    0.0000 H   0  0  0  0  0  0  0  0  0  0  0  0
    6.1330    6.0713    0.0000 H   0  0  0  0  0  0  0  0  0  0  0  0
  1 19  1  0  0  0  0
  1 25  1  0  0  0  0
 17  2  1  1  0  0  0
  2 36  1  0  0  0  0
 20  3  1  1  0  0  0
  3 37  1  0  0  0  0
 21  4  1  6  0  0  0
  4 80  1  0  0  0  0
 22  5  1  6  0  0  0
  5 81  1  0  0  0  0
  6 26  2  0  0  0  0
 30  7  1  6  0  0  0
  7 85  1  0  0  0  0
 31  8  1  1  0  0  0
  8 39  1  0  0  0  0
  9 36  2  0  0  0  0
 10 37  2  0  0  0  0
 11 39  2  0  0  0  0
 41 12  1  1  0  0  0
 12 95  1  0  0  0  0
 13 51  1  0  0  0  0
 13 55  1  0  0  0  0
 14 51  2  0  0  0  0
 44 15  1  1  0  0  0
 15 51  1  0  0  0  0
 15 97  1  0  0  0  0
 16 17  1  0  0  0  0
 16 18  1  0  0  0  0
 16 20  1  0  0  0  0
 16 59  1  1  0  0  0
 17 19  1  0  0  0  0
 17 25  1  0  0  0  0
 18 22  1  0  0  0  0
 18 26  1  0  0  0  0
 18 29  1  6  0  0  0
 19 23  1  0  0  0  0
 19 60  1  1  0  0  0
 20 21  1  0  0  0  0
 20 61  1  0  0  0  0
 21 24  1  0  0  0  0
 21 27  1  0  0  0  0
 22 23  1  0  0  0  0
 22 62  1  0  0  0  0
 23 63  1  0  0  0  0
 23 64  1  0  0  0  0
 24 28  1  0  0  0  0
 24 33  1  0  0  0  0
 24 34  1  0  0  0  0
 25 65  1  0  0  0  0
 25 66  1  0  0  0  0
 26 30  1  0  0  0  0
 27 31  1  0  0  0  0
 27 67  1  0  0  0  0
 27 68  1  0  0  0  0
 28 30  1  0  0  0  0
 28 32  2  0  0  0  0
 29 69  1  0  0  0  0
 29 70  1  0  0  0  0
 29 71  1  0  0  0  0
 30 72  1  0  0  0  0
 31 32  1  0  0  0  0
 31 73  1  0  0  0  0
 32 35  1  0  0  0  0
 33 74  1  0  0  0  0
 33 75  1  0  0  0  0
 33 76  1  0  0  0  0
 34 77  1  0  0  0  0
 34 78  1  0  0  0  0
 34 79  1  0  0  0  0
 35 82  1  0  0  0  0
 35 83  1  0  0  0  0
 35 84  1  0  0  0  0
 36 38  1  0  0  0  0
 37 40  1  0  0  0  0
 38 86  1  0  0  0  0
 38 87  1  0  0  0  0
 38 88  1  0  0  0  0
 39 41  1  0  0  0  0
 40 42  2  0  0  0  0
 40 43  1  0  0  0  0
 41 44  1  0  0  0  0
 41 89  1  0  0  0  0
 42 45  1  0  0  0  0
 42 90  1  0  0  0  0
 43 46  2  0  0  0  0
 43 91  1  0  0  0  0
 44 48  1  0  0  0  0
 44 92  1  0  0  0  0
 45 47  2  0  0  0  0
 45 93  1  0  0  0  0
 46 47  1  0  0  0  0
 46 94  1  0  0  0  0
 47 96  1  0  0  0  0
 48 49  2  0  0  0  0
 48 50  1  0  0  0  0
 49 52  1  0  0  0  0
 49 98  1  0  0  0  0
 50 53  2  0  0  0  0
 50 99  1  0  0  0  0
 52 54  2  0  0  0  0
 52100  1  0  0  0  0
 53 54  1  0  0  0  0
 53101  1  0  0  0  0
 54102  1  0  0  0  0
 55 56  1  0  0  0  0
 55 57  1  0  0  0  0
 55 58  1  0  0  0  0
 56103  1  0  0  0  0
 56104  1  0  0  0  0
 56105  1  0  0  0  0
 57106  1  0  0  0  0
 57107  1  0  0  0  0
 57108  1  0  0  0  0
 58109  1  0  0  0  0
 58110  1  0  0  0  0
 58111  1  0  0  0  0
M  END
> <PUBCHEM_COMPOUND_CID>
148124

> <PUBCHEM_COMPOUND_CANONICALIZED>
1

> <PUBCHEM_CACTVS_COMPLEXITY>
1660

> <PUBCHEM_CACTVS_HBOND_ACCEPTOR>
14

> <PUBCHEM_CACTVS_HBOND_DONOR>
5

> <PUBCHEM_CACTVS_ROTATABLE_BOND>
13

> <PUBCHEM_CACTVS_SUBSKEYS>
AAADcfB+PAAAAAAAAAAAAAAAAABIAAAAAAAwYMEAAAAaIACBQAAAHgAQCAAAD3zhmAYyCILABgCIAqDSGAKCAAAkAAAIiIFIDMkLNj6AtRmOcQhn9gEbuYfa7PzPgAAAAAAAAABCAAYQADCAAAAAAAAAAA==

> <PUBCHEM_IUPAC_OPENEYE_NAME>
[(1S,2S,3R,4S,7R,9S,10S,12R,15S)-4-acetoxy-15-[(2R,3S)-3-(tert-butoxycarbonylamino)-2-hydroxy-3-phenyl-propanoyl]oxy-1,9,12-trihydroxy-10,14,17,17-tetramethyl-11-oxo-6-oxatetracyclo[11.3.1.03,10.04,7]heptadec-13-en-2-yl] benzoate

> <PUBCHEM_IUPAC_CAS_NAME>
benzoic acid [(1S,2S,3R,4S,7R,9S,10S,12R,15S)-4-acetyloxy-1,9,12-trihydroxy-15-[(2R,3S)-2-hydroxy-3-[[(2-methylpropan-2-yl)oxy-oxomethyl]amino]-1-oxo-3-phenylpropoxy]-10,14,17,17-tetramethyl-11-oxo-6-oxatetracyclo[11.3.1.03,10.04,7]heptadec-13-en-2-yl] ester

> <PUBCHEM_IUPAC_NAME_MARKUP>
[(1<I>S</I>,2<I>S</I>,3<I>R</I>,4<I>S</I>,7<I>R</I>,9<I>S</I>,10<I>S</I>,12<I>R</I>,15<I>S</I>)-4-acetyloxy-1,9,12-trihydroxy-15-[(2<I>R</I>,3<I>S</I>)-2-hydroxy-3-[(2-methylpropan-2-yl)oxycarbonylamino]-3-phenylpropanoyl]oxy-10,14,17,17-tetramethyl-11-oxo-6-oxatetracyclo[11.3.1.0<SUP>3,10</SUP>.0<SUP>4,7</SUP>]heptadec-13-en-2-yl] benzoate

> <PUBCHEM_IUPAC_NAME>
[(1S,2S,3R,4S,7R,9S,10S,12R,15S)-4-acetyloxy-1,9,12-trihydroxy-15-[(2R,3S)-2-hydroxy-3-[(2-methylpropan-2-yl)oxycarbonylamino]-3-phenylpropanoyl]oxy-10,14,17,17-tetramethyl-11-oxo-6-oxatetracyclo[11.3.1.03,10.04,7]heptadec-13-en-2-yl] benzoate

> <PUBCHEM_IUPAC_SYSTEMATIC_NAME>
[(1S,2S,3R,4S,7R,9S,10S,12R,15S)-4-acetyloxy-10,14,17,17-tetramethyl-15-[(2R,3S)-3-[(2-methylpropan-2-yl)oxycarbonylamino]-2-oxidanyl-3-phenyl-propanoyl]oxy-1,9,12-tris(oxidanyl)-11-oxidanylidene-6-oxatetracyclo[11.3.1.03,10.04,7]heptadec-13-en-2-yl] benzoate

> <PUBCHEM_IUPAC_TRADITIONAL_NAME>
benzoic acid [(1S,2S,3R,4S,7R,9S,10S,12R,15S)-4-acetoxy-15-[(2R,3S)-3-(tert-butoxycarbonylamino)-2-hydroxy-3-phenyl-propanoyl]oxy-1,9,12-trihydroxy-11-keto-10,14,17,17-tetramethyl-6-oxatetracyclo[11.3.1.03,10.04,7]heptadec-13-en-2-yl] ester

> <PUBCHEM_IUPAC_INCHI>
InChI=1S/C43H53NO14/c1-22-26(55-37(51)32(48)30(24-15-11-9-12-16-24)44-38(52)58-39(3,4)5)20-43(53)35(56-36(50)25-17-13-10-14-18-25)33-41(8,34(49)31(47)29(22)40(43,6)7)27(46)19-28-42(33,21-54-28)57-23(2)45/h9-18,26-28,30-33,35,46-48,53H,19-21H2,1-8H3,(H,44,52)/t26-,27-,28+,30-,31+,32+,33-,35-,41+,42-,43+/m0/s1

> <PUBCHEM_IUPAC_INCHIKEY>
ZDZOTLJHXYCWBA-VCVYQWHSSA-N

> <PUBCHEM_XLOGP3>
1.6

> <PUBCHEM_EXACT_MASS>
807.346605

> <PUBCHEM_MOLECULAR_FORMULA>
C43H53NO14

> <PUBCHEM_MOLECULAR_WEIGHT>
807.9

> <PUBCHEM_OPENEYE_CAN_SMILES>
CC1=C2C(C(=O)C3(C(CC4C(C3C(C(C2(C)C)(CC1OC(=O)C(C(C5=CC=CC=C5)NC(=O)OC(C)(C)C)O)O)OC(=O)C6=CC=CC=C6)(CO4)OC(=O)C)O)C)O

> <PUBCHEM_OPENEYE_ISO_SMILES>
CC1=C2[C@H](C(=O)[C@@]3([C@H](C[C@@H]4[C@]([C@H]3[C@@H]([C@@](C2(C)C)(C[C@@H]1OC(=O)[C@@H]([C@H](C5=CC=CC=C5)NC(=O)OC(C)(C)C)O)O)OC(=O)C6=CC=CC=C6)(CO4)OC(=O)C)O)C)O

> <PUBCHEM_CACTVS_TPSA>
224

> <PUBCHEM_MONOISOTOPIC_WEIGHT>
807.346605

> <PUBCHEM_TOTAL_CHARGE>
0

> <PUBCHEM_HEAVY_ATOM_COUNT>
58

> <PUBCHEM_ATOM_DEF_STEREO_COUNT>
11

> <PUBCHEM_ATOM_UDEF_STEREO_COUNT>
0

> <PUBCHEM_BOND_DEF_STEREO_COUNT>
0

> <PUBCHEM_BOND_UDEF_STEREO_COUNT>
0

> <PUBCHEM_ISOTOPIC_ATOM_COUNT>
0

> <PUBCHEM_COMPONENT_COUNT>
1

> <PUBCHEM_CACTVS_TAUTO_COUNT>
-1

> <PUBCHEM_COORDINATE_TYPE>
1
5
255

> <PUBCHEM_BONDANNOTATIONS>
41  12  5
44  15  5
16  59  5
18  29  6
19  60  5
17  2  5
20  3  5
21  4  6
40  42  8
40  43  8
42  45  8
43  46  8
45  47  8
46  47  8
48  49  8
48  50  8
49  52  8
22  5  6
50  53  8
52  54  8
53  54  8
30  7  6
31  8  5

$$$$
25262965
  -OEChem-02182015172D

 65 69  0     1  0  0  0  0  0999 V2000
    8.6721    3.7671    0.0000 O   0  0  0  0  0  0  0  0  0  0  0  0
   12.1362   -2.2329    0.0000 O   0  0  0  0  0  0  0  0  0  0  0  0
    2.5497   -2.7671    0.0000 O   0  0  0  0  0  0  0  0  0  0  0  0
    2.5381    0.2329    0.0000 O   0  0  0  0  0  0  0  0  0  0  0  0
    8.6721    1.7671    0.0000 N   0  0  3  0  0  0  0  0  0  0  0  0
   10.4041   -1.2329    0.0000 N   0  0  3  0  0  0  0  0  0  0  0  0
    9.5381    0.2671    0.0000 N   0  0  0  0  0  0  0  0  0  0  0  0
    8.6721   -1.2329    0.0000 N   0  0  0  0  0  0  0  0  0  0  0  0
    6.9121   -1.2676    0.0000 N   0  0  0  0  0  0  0  0  0  0  0  0
    9.5381    2.2671    0.0000 C   0  0  2  0  0  0  0  0  0  0  0  0
   10.4041   -2.2329    0.0000 C   0  0  2  0  0  0  0  0  0  0  0  0
    7.8061    2.2671    0.0000 C   0  0  0  0  0  0  0  0  0  0  0  0
    9.5381    3.2671    0.0000 C   0  0  0  0  0  0  0  0  0  0  0  0
    8.6721    0.7671    0.0000 C   0  0  0  0  0  0  0  0  0  0  0  0
   11.2702   -0.7329    0.0000 C   0  0  0  0  0  0  0  0  0  0  0  0
   11.2702   -2.7329    0.0000 C   0  0  0  0  0  0  0  0  0  0  0  0
    7.8061    3.2671    0.0000 C   0  0  0  0  0  0  0  0  0  0  0  0
    9.5381   -0.7329    0.0000 C   0  0  0  0  0  0  0  0  0  0  0  0
   12.1362   -1.2329    0.0000 C   0  0  0  0  0  0  0  0  0  0  0  0
   10.4041    1.7671    0.0000 C   0  0  0  0  0  0  0  0  0  0  0  0
    7.8061    0.2671    0.0000 C   0  0  0  0  0  0  0  0  0  0  0  0
    9.5381   -2.7329    0.0000 C   0  0  0  0  0  0  0  0  0  0  0  0
    7.8061   -0.7329    0.0000 C   0  0  0  0  0  0  0  0  0  0  0  0
    6.9121    0.8017    0.0000 C   0  0  0  0  0  0  0  0  0  0  0  0
    6.0061   -0.7537    0.0000 C   0  0  0  0  0  0  0  0  0  0  0  0
    6.0061    0.2879    0.0000 C   0  0  0  0  0  0  0  0  0  0  0  0
    5.1420   -1.2571    0.0000 C   0  0  0  0  0  0  0  0  0  0  0  0
    4.2740   -0.7604    0.0000 C   0  0  0  0  0  0  0  0  0  0  0  0
    5.1458   -2.2571    0.0000 C   0  0  0  0  0  0  0  0  0  0  0  0
    3.4099   -1.2638    0.0000 C   0  0  0  0  0  0  0  0  0  0  0  0
    3.4138   -2.2638    0.0000 C   0  0  0  0  0  0  0  0  0  0  0  0
    4.2817   -2.7604    0.0000 C   0  0  0  0  0  0  0  0  0  0  0  0
    2.5420   -0.7671    0.0000 C   0  0  0  0  0  0  0  0  0  0  0  0
    2.5535   -3.7671    0.0000 C   0  0  0  0  0  0  0  0  0  0  0  0
    9.5381    1.6471    0.0000 H   0  0  0  0  0  0  0  0  0  0  0  0
    9.8672   -1.9229    0.0000 H   0  0  0  0  0  0  0  0  0  0  0  0
    7.1955    2.3747    0.0000 H   0  0  0  0  0  0  0  0  0  0  0  0
    7.5940    1.6845    0.0000 H   0  0  0  0  0  0  0  0  0  0  0  0
   10.1487    3.1594    0.0000 H   0  0  0  0  0  0  0  0  0  0  0  0
    9.7502    3.8497    0.0000 H   0  0  0  0  0  0  0  0  0  0  0  0
   11.6687   -0.2580    0.0000 H   0  0  0  0  0  0  0  0  0  0  0  0
   10.8716   -0.2580    0.0000 H   0  0  0  0  0  0  0  0  0  0  0  0
   10.8716   -3.2079    0.0000 H   0  0  0  0  0  0  0  0  0  0  0  0
   11.6687   -3.2079    0.0000 H   0  0  0  0  0  0  0  0  0  0  0  0
    7.5940    3.8497    0.0000 H   0  0  0  0  0  0  0  0  0  0  0  0
    7.1955    3.1594    0.0000 H   0  0  0  0  0  0  0  0  0  0  0  0
   12.7468   -1.3406    0.0000 H   0  0  0  0  0  0  0  0  0  0  0  0
   12.3482   -0.6503    0.0000 H   0  0  0  0  0  0  0  0  0  0  0  0
   10.0941    1.2301    0.0000 H   0  0  0  0  0  0  0  0  0  0  0  0
   10.9411    1.4571    0.0000 H   0  0  0  0  0  0  0  0  0  0  0  0
   10.7141    2.3040    0.0000 H   0  0  0  0  0  0  0  0  0  0  0  0
    9.2281   -2.1960    0.0000 H   0  0  0  0  0  0  0  0  0  0  0  0
    9.0012   -3.0429    0.0000 H   0  0  0  0  0  0  0  0  0  0  0  0
    9.8481   -3.2699    0.0000 H   0  0  0  0  0  0  0  0  0  0  0  0
    6.9193    1.4217    0.0000 H   0  0  0  0  0  0  0  0  0  0  0  0
    5.4703    0.6000    0.0000 H   0  0  0  0  0  0  0  0  0  0  0  0
    4.2716   -0.1404    0.0000 H   0  0  0  0  0  0  0  0  0  0  0  0
    5.6840   -2.5650    0.0000 H   0  0  0  0  0  0  0  0  0  0  0  0
    4.2841   -3.3804    0.0000 H   0  0  0  0  0  0  0  0  0  0  0  0
    1.9310   -0.6618    0.0000 H   0  0  0  0  0  0  0  0  0  0  0  0
    2.3322   -1.3505    0.0000 H   0  0  0  0  0  0  0  0  0  0  0  0
    2.0000    0.5408    0.0000 H   0  0  0  0  0  0  0  0  0  0  0  0
    1.9336   -3.7695    0.0000 H   0  0  0  0  0  0  0  0  0  0  0  0
    2.5559   -4.3871    0.0000 H   0  0  0  0  0  0  0  0  0  0  0  0
    3.1735   -3.7647    0.0000 H   0  0  0  0  0  0  0  0  0  0  0  0
  1 13  1  0  0  0  0
  1 17  1  0  0  0  0
  2 16  1  0  0  0  0
  2 19  1  0  0  0  0
  3 31  1  0  0  0  0
  3 34  1  0  0  0  0
  4 33  1  0  0  0  0
  4 62  1  0  0  0  0
  5 10  1  0  0  0  0
  5 12  1  0  0  0  0
  5 14  1  0  0  0  0
  6 11  1  0  0  0  0
  6 15  1  0  0  0  0
  6 18  1  0  0  0  0
  7 14  2  0  0  0  0
  7 18  1  0  0  0  0
  8 18  2  0  0  0  0
  8 23  1  0  0  0  0
  9 23  1  0  0  0  0
  9 25  2  0  0  0  0
 10 13  1  0  0  0  0
 10 20  1  6  0  0  0
 10 35  1  0  0  0  0
 11 16  1  0  0  0  0
 11 22  1  6  0  0  0
 11 36  1  0  0  0  0
 12 17  1  0  0  0  0
 12 37  1  0  0  0  0
 12 38  1  0  0  0  0
 13 39  1  0  0  0  0
 13 40  1  0  0  0  0
 14 21  1  0  0  0  0
 15 19  1  0  0  0  0
 15 41  1  0  0  0  0
 15 42  1  0  0  0  0
 16 43  1  0  0  0  0
 16 44  1  0  0  0  0
 17 45  1  0  0  0  0
 17 46  1  0  0  0  0
 19 47  1  0  0  0  0
 19 48  1  0  0  0  0
 20 49  1  0  0  0  0
 20 50  1  0  0  0  0
 20 51  1  0  0  0  0
 21 23  2  0  0  0  0
 21 24  1  0  0  0  0
 22 52  1  0  0  0  0
 22 53  1  0  0  0  0
 22 54  1  0  0  0  0
 24 26  2  0  0  0  0
 24 55  1  0  0  0  0
 25 26  1  0  0  0  0
 25 27  1  0  0  0  0
 26 56  1  0  0  0  0
 27 28  2  0  0  0  0
 27 29  1  0  0  0  0
 28 30  1  0  0  0  0
 28 57  1  0  0  0  0
 29 32  2  0  0  0  0
 29 58  1  0  0  0  0
 30 31  2  0  0  0  0
 30 33  1  0  0  0  0
 31 32  1  0  0  0  0
 32 59  1  0  0  0  0
 33 60  1  0  0  0  0
 33 61  1  0  0  0  0
 34 63  1  0  0  0  0
 34 64  1  0  0  0  0
 34 65  1  0  0  0  0
M  END
> <PUBCHEM_COMPOUND_CID>
25262965

> <PUBCHEM_COMPOUND_CANONICALIZED>
1

> <PUBCHEM_CACTVS_COMPLEXITY>
659

> <PUBCHEM_CACTVS_HBOND_ACCEPTOR>
9

> <PUBCHEM_CACTVS_HBOND_DONOR>
1

> <PUBCHEM_CACTVS_ROTATABLE_BOND>
5

> <PUBCHEM_CACTVS_SUBSKEYS>
AAADceB7uAAAAAAAAAAAAAAAAAAAAAAAAAA8WLFiAAAAAACx/AAAHgAACAAADCzhnwYztt8IFgCgAyZiZACCiCkhIqAJmCA+bJiOP+LE+duHdChtwBPY+CeQ0OMOIAACAAAIAABAAAQAABAAAAAAAAAAAA==

> <PUBCHEM_IUPAC_OPENEYE_NAME>
[5-[2,4-bis[(3S)-3-methylmorpholin-4-yl]pyrido[2,3-d]pyrimidin-7-yl]-2-methoxy-phenyl]methanol

> <PUBCHEM_IUPAC_CAS_NAME>
[5-[2,4-bis[(3S)-3-methyl-4-morpholinyl]-7-pyrido[2,3-d]pyrimidinyl]-2-methoxyphenyl]methanol

> <PUBCHEM_IUPAC_NAME_MARKUP>
[5-[2,4-bis[(3<I>S</I>)-3-methylmorpholin-4-yl]pyrido[2,3-d]pyrimidin-7-yl]-2-methoxyphenyl]methanol

> <PUBCHEM_IUPAC_NAME>
[5-[2,4-bis[(3S)-3-methylmorpholin-4-yl]pyrido[2,3-d]pyrimidin-7-yl]-2-methoxyphenyl]methanol

> <PUBCHEM_IUPAC_SYSTEMATIC_NAME>
[5-[2,4-bis[(3S)-3-methylmorpholin-4-yl]pyrido[2,3-d]pyrimidin-7-yl]-2-methoxy-phenyl]methanol

> <PUBCHEM_IUPAC_TRADITIONAL_NAME>
[5-[2,4-bis[(3S)-3-methylmorpholino]pyrido[2,3-d]pyrimidin-7-yl]-2-methoxy-phenyl]methanol

> <PUBCHEM_IUPAC_INCHI>
InChI=1S/C25H31N5O4/c1-16-14-33-10-8-29(16)24-20-5-6-21(18-4-7-22(32-3)19(12-18)13-31)26-23(20)27-25(28-24)30-9-11-34-15-17(30)2/h4-7,12,16-17,31H,8-11,13-15H2,1-3H3/t16-,17-/m0/s1

> <PUBCHEM_IUPAC_INCHIKEY>
KVLFRAWTRWDEDF-IRXDYDNUSA-N

> <PUBCHEM_XLOGP3_AA>
2.6

> <PUBCHEM_EXACT_MASS>
465.237604

> <PUBCHEM_MOLECULAR_FORMULA>
C25H31N5O4

> <PUBCHEM_MOLECULAR_WEIGHT>
465.5

> <PUBCHEM_OPENEYE_CAN_SMILES>
CC1COCCN1C2=NC(=NC3=C2C=CC(=N3)C4=CC(=C(C=C4)OC)CO)N5CCOCC5C

> <PUBCHEM_OPENEYE_ISO_SMILES>
C[C@H]1COCCN1C2=NC(=NC3=C2C=CC(=N3)C4=CC(=C(C=C4)OC)CO)N5CCOC[C@@H]5C

> <PUBCHEM_CACTVS_TPSA>
93.1

> <PUBCHEM_MONOISOTOPIC_WEIGHT>
465.237604

> <PUBCHEM_TOTAL_CHARGE>
0

> <PUBCHEM_HEAVY_ATOM_COUNT>
34

> <PUBCHEM_ATOM_DEF_STEREO_COUNT>
2

> <PUBCHEM_ATOM_UDEF_STEREO_COUNT>
0

> <PUBCHEM_BOND_DEF_STEREO_COUNT>
0

> <PUBCHEM_BOND_UDEF_STEREO_COUNT>
0

> <PUBCHEM_ISOTOPIC_ATOM_COUNT>
0

> <PUBCHEM_COMPONENT_COUNT>
1

> <PUBCHEM_CACTVS_TAUTO_COUNT>
-1

> <PUBCHEM_COORDINATE_TYPE>
1
5
255

> <PUBCHEM_BONDANNOTATIONS>
10  20  6
11  22  6
14  21  8
21  23  8
21  24  8
24  26  8
25  26  8
27  28  8
27  29  8
28  30  8
29  32  8
30  31  8
31  32  8
7  14  8
7  18  8
8  18  8
8  23  8
9  23  8
9  25  8

$$$$
216239
  -OEChem-02182015172D

 48 50  0     0  0  0  0  0  0999 V2000
    2.0000    3.7500    0.0000 Cl  0  0  0  0  0  0  0  0  0  0  0  0
    3.7320    5.7500    0.0000 F   0  0  0  0  0  0  0  0  0  0  0  0
    4.7320    4.7500    0.0000 F   0  0  0  0  0  0  0  0  0  0  0  0
    2.7320    4.7500    0.0000 F   0  0  0  0  0  0  0  0  0  0  0  0
    6.3301   -3.7500    0.0000 O   0  0  0  0  0  0  0  0  0  0  0  0
    4.5981    0.2500    0.0000 O   0  0  0  0  0  0  0  0  0  0  0  0
    9.7942   -2.7500    0.0000 O   0  0  0  0  0  0  0  0  0  0  0  0
    5.4641    1.7500    0.0000 N   0  0  0  0  0  0  0  0  0  0  0  0
    6.3301    0.2500    0.0000 N   0  0  0  0  0  0  0  0  0  0  0  0
    8.9282   -5.2500    0.0000 N   0  0  0  0  0  0  0  0  0  0  0  0
   10.6603   -4.2500    0.0000 N   0  0  0  0  0  0  0  0  0  0  0  0
    4.5981    2.2500    0.0000 C   0  0  0  0  0  0  0  0  0  0  0  0
    3.7320    3.7500    0.0000 C   0  0  0  0  0  0  0  0  0  0  0  0
    4.5981    3.2500    0.0000 C   0  0  0  0  0  0  0  0  0  0  0  0
    6.3301   -0.7500    0.0000 C   0  0  0  0  0  0  0  0  0  0  0  0
    3.7320    1.7500    0.0000 C   0  0  0  0  0  0  0  0  0  0  0  0
    6.3301   -2.7500    0.0000 C   0  0  0  0  0  0  0  0  0  0  0  0
    2.8660    3.2500    0.0000 C   0  0  0  0  0  0  0  0  0  0  0  0
    7.1962   -1.2500    0.0000 C   0  0  0  0  0  0  0  0  0  0  0  0
    5.4641   -1.2500    0.0000 C   0  0  0  0  0  0  0  0  0  0  0  0
    2.8660    2.2500    0.0000 C   0  0  0  0  0  0  0  0  0  0  0  0
    7.1962   -2.2500    0.0000 C   0  0  0  0  0  0  0  0  0  0  0  0
    5.4641   -2.2500    0.0000 C   0  0  0  0  0  0  0  0  0  0  0  0
    5.4641    0.7500    0.0000 C   0  0  0  0  0  0  0  0  0  0  0  0
    3.7320    4.7500    0.0000 C   0  0  0  0  0  0  0  0  0  0  0  0
    7.1962   -4.2500    0.0000 C   0  0  0  0  0  0  0  0  0  0  0  0
    8.0622   -3.7500    0.0000 C   0  0  0  0  0  0  0  0  0  0  0  0
    8.9282   -4.2500    0.0000 C   0  0  0  0  0  0  0  0  0  0  0  0
    7.1962   -5.2500    0.0000 C   0  0  0  0  0  0  0  0  0  0  0  0
    8.0622   -5.7500    0.0000 C   0  0  0  0  0  0  0  0  0  0  0  0
    9.7942   -3.7500    0.0000 C   0  0  0  0  0  0  0  0  0  0  0  0
   11.5263   -3.7500    0.0000 C   0  0  0  0  0  0  0  0  0  0  0  0
    5.1350    3.5600    0.0000 H   0  0  0  0  0  0  0  0  0  0  0  0
    3.7320    1.1300    0.0000 H   0  0  0  0  0  0  0  0  0  0  0  0
    6.0010    2.0600    0.0000 H   0  0  0  0  0  0  0  0  0  0  0  0
    7.7331   -0.9400    0.0000 H   0  0  0  0  0  0  0  0  0  0  0  0
    4.9272   -0.9400    0.0000 H   0  0  0  0  0  0  0  0  0  0  0  0
    6.8671    0.5600    0.0000 H   0  0  0  0  0  0  0  0  0  0  0  0
    2.3291    1.9400    0.0000 H   0  0  0  0  0  0  0  0  0  0  0  0
    7.7331   -2.5600    0.0000 H   0  0  0  0  0  0  0  0  0  0  0  0
    4.9272   -2.5600    0.0000 H   0  0  0  0  0  0  0  0  0  0  0  0
    8.0622   -3.1300    0.0000 H   0  0  0  0  0  0  0  0  0  0  0  0
    6.6592   -5.5600    0.0000 H   0  0  0  0  0  0  0  0  0  0  0  0
    8.0622   -6.3700    0.0000 H   0  0  0  0  0  0  0  0  0  0  0  0
   10.6603   -4.8700    0.0000 H   0  0  0  0  0  0  0  0  0  0  0  0
   11.8363   -4.2869    0.0000 H   0  0  0  0  0  0  0  0  0  0  0  0
   12.0632   -3.4400    0.0000 H   0  0  0  0  0  0  0  0  0  0  0  0
   11.2163   -3.2131    0.0000 H   0  0  0  0  0  0  0  0  0  0  0  0
  1 18  1  0  0  0  0
  2 25  1  0  0  0  0
  3 25  1  0  0  0  0
  4 25  1  0  0  0  0
  5 17  1  0  0  0  0
  5 26  1  0  0  0  0
  6 24  2  0  0  0  0
  7 31  2  0  0  0  0
  8 12  1  0  0  0  0
  8 24  1  0  0  0  0
  8 35  1  0  0  0  0
  9 15  1  0  0  0  0
  9 24  1  0  0  0  0
  9 38  1  0  0  0  0
 10 28  2  0  0  0  0
 10 30  1  0  0  0  0
 11 31  1  0  0  0  0
 11 32  1  0  0  0  0
 11 45  1  0  0  0  0
 12 14  2  0  0  0  0
 12 16  1  0  0  0  0
 13 14  1  0  0  0  0
 13 18  2  0  0  0  0
 13 25  1  0  0  0  0
 14 33  1  0  0  0  0
 15 19  2  0  0  0  0
 15 20  1  0  0  0  0
 16 21  2  0  0  0  0
 16 34  1  0  0  0  0
 17 22  2  0  0  0  0
 17 23  1  0  0  0  0
 18 21  1  0  0  0  0
 19 22  1  0  0  0  0
 19 36  1  0  0  0  0
 20 23  2  0  0  0  0
 20 37  1  0  0  0  0
 21 39  1  0  0  0  0
 22 40  1  0  0  0  0
 23 41  1  0  0  0  0
 26 27  2  0  0  0  0
 26 29  1  0  0  0  0
 27 28  1  0  0  0  0
 27 42  1  0  0  0  0
 28 31  1  0  0  0  0
 29 30  2  0  0  0  0
 29 43  1  0  0  0  0
 30 44  1  0  0  0  0
 32 46  1  0  0  0  0
 32 47  1  0  0  0  0
 32 48  1  0  0  0  0
M  END
> <PUBCHEM_COMPOUND_CID>
216239

> <PUBCHEM_COMPOUND_CANONICALIZED>
1

> <PUBCHEM_CACTVS_COMPLEXITY>
646

> <PUBCHEM_CACTVS_HBOND_ACCEPTOR>
7

> <PUBCHEM_CACTVS_HBOND_DONOR>
3

> <PUBCHEM_CACTVS_ROTATABLE_BOND>
5

> <PUBCHEM_CACTVS_SUBSKEYS>
AAADceB7sYAEAAAAAAAAAAAAAAAAAAAAAAA8YIAAAAAAAAAB0AAAHwIQAAAADA7BnjQ/xpLIFACoAzV3VACCiCA3JyAI2KG+btiMZnLFt7uWOSju1hvI6ae6yAAOAEBAQAABAAAAgICAAAIAAAAAAAAAAA==

> <PUBCHEM_IUPAC_OPENEYE_NAME>
4-[4-[[4-chloro-3-(trifluoromethyl)phenyl]carbamoylamino]phenoxy]-N-methyl-pyridine-2-carboxamide

> <PUBCHEM_IUPAC_CAS_NAME>
4-[4-[[[4-chloro-3-(trifluoromethyl)anilino]-oxomethyl]amino]phenoxy]-N-methyl-2-pyridinecarboxamide

> <PUBCHEM_IUPAC_NAME_MARKUP>
4-[4-[[4-chloro-3-(trifluoromethyl)phenyl]carbamoylamino]phenoxy]-<I>N</I>-methylpyridine-2-carboxamide

> <PUBCHEM_IUPAC_NAME>
4-[4-[[4-chloro-3-(trifluoromethyl)phenyl]carbamoylamino]phenoxy]-N-methylpyridine-2-carboxamide

> <PUBCHEM_IUPAC_SYSTEMATIC_NAME>
4-[4-[[4-chloranyl-3-(trifluoromethyl)phenyl]carbamoylamino]phenoxy]-N-methyl-pyridine-2-carboxamide

> <PUBCHEM_IUPAC_TRADITIONAL_NAME>
4-[4-[[4-chloro-3-(trifluoromethyl)phenyl]carbamoylamino]phenoxy]-N-methyl-picolinamide

> <PUBCHEM_IUPAC_INCHI>
InChI=1S/C21H16ClF3N4O3/c1-26-19(30)18-11-15(8-9-27-18)32-14-5-2-12(3-6-14)28-20(31)29-13-4-7-17(22)16(10-13)21(23,24)25/h2-11H,1H3,(H,26,30)(H2,28,29,31)

> <PUBCHEM_IUPAC_INCHIKEY>
MLDQJTXFUGDVEO-UHFFFAOYSA-N

> <PUBCHEM_XLOGP3_AA>
4.1

> <PUBCHEM_EXACT_MASS>
464.086303

> <PUBCHEM_MOLECULAR_FORMULA>
C21H16ClF3N4O3

> <PUBCHEM_MOLECULAR_WEIGHT>
464.8

> <PUBCHEM_OPENEYE_CAN_SMILES>
CNC(=O)C1=NC=CC(=C1)OC2=CC=C(C=C2)NC(=O)NC3=CC(=C(C=C3)Cl)C(F)(F)F

> <PUBCHEM_OPENEYE_ISO_SMILES>
CNC(=O)C1=NC=CC(=C1)OC2=CC=C(C=C2)NC(=O)NC3=CC(=C(C=C3)Cl)C(F)(F)F

> <PUBCHEM_CACTVS_TPSA>
92.4

> <PUBCHEM_MONOISOTOPIC_WEIGHT>
464.086303

> <PUBCHEM_TOTAL_CHARGE>
0

> <PUBCHEM_HEAVY_ATOM_COUNT>
32

> <PUBCHEM_ATOM_DEF_STEREO_COUNT>
0

> <PUBCHEM_ATOM_UDEF_STEREO_COUNT>
0

> <PUBCHEM_BOND_DEF_STEREO_COUNT>
0

> <PUBCHEM_BOND_UDEF_STEREO_COUNT>
0

> <PUBCHEM_ISOTOPIC_ATOM_COUNT>
0

> <PUBCHEM_COMPONENT_COUNT>
1

> <PUBCHEM_CACTVS_TAUTO_COUNT>
-1

> <PUBCHEM_COORDINATE_TYPE>
1
5
255

> <PUBCHEM_BONDANNOTATIONS>
10  28  8
10  30  8
12  14  8
12  16  8
13  14  8
13  18  8
15  19  8
15  20  8
16  21  8
17  22  8
17  23  8
18  21  8
19  22  8
20  23  8
26  27  8
26  29  8
27  28  8
29  30  8

$$$$
5494449
  -OEChem-02182015172D

 61 65  0     0  0  0  0  0  0999 V2000
    6.3285   -1.3261    0.0000 S   0  0  0  0  0  0  0  0  0  0  0  0
   10.6587   -0.8261    0.0000 O   0  0  0  0  0  0  0  0  0  0  0  0
    9.7926    0.6739    0.0000 N   0  0  0  0  0  0  0  0  0  0  0  0
    4.5965    1.6739    0.0000 N   0  0  0  0  0  0  0  0  0  0  0  0
    4.5965    3.6739    0.0000 N   0  0  0  0  0  0  0  0  0  0  0  0
    5.4625    0.1739    0.0000 N   0  0  0  0  0  0  0  0  0  0  0  0
    4.5965   -1.3261    0.0000 N   0  0  0  0  0  0  0  0  0  0  0  0
    2.8644   -1.3261    0.0000 N   0  0  0  0  0  0  0  0  0  0  0  0
    2.0554   -2.9139    0.0000 N   0  0  0  0  0  0  0  0  0  0  0  0
    2.3644   -3.8649    0.0000 N   0  0  0  0  0  0  0  0  0  0  0  0
   11.5247    0.6739    0.0000 C   0  0  0  0  0  0  0  0  0  0  0  0
   12.5247    0.6739    0.0000 C   0  0  0  0  0  0  0  0  0  0  0  0
   12.0247    1.5400    0.0000 C   0  0  0  0  0  0  0  0  0  0  0  0
   10.6587    0.1739    0.0000 C   0  0  0  0  0  0  0  0  0  0  0  0
    3.7304    2.1739    0.0000 C   0  0  0  0  0  0  0  0  0  0  0  0
    5.4625    2.1739    0.0000 C   0  0  0  0  0  0  0  0  0  0  0  0
    3.7304    3.1739    0.0000 C   0  0  0  0  0  0  0  0  0  0  0  0
    5.4625    3.1739    0.0000 C   0  0  0  0  0  0  0  0  0  0  0  0
    4.5965    0.6739    0.0000 C   0  0  0  0  0  0  0  0  0  0  0  0
    8.9266    0.1739    0.0000 C   0  0  0  0  0  0  0  0  0  0  0  0
    4.5965    4.6739    0.0000 C   0  0  0  0  0  0  0  0  0  0  0  0
    3.7304    0.1739    0.0000 C   0  0  0  0  0  0  0  0  0  0  0  0
    8.9266   -0.8261    0.0000 C   0  0  0  0  0  0  0  0  0  0  0  0
    8.0606    0.6739    0.0000 C   0  0  0  0  0  0  0  0  0  0  0  0
    3.7304   -0.8261    0.0000 C   0  0  0  0  0  0  0  0  0  0  0  0
    5.4625   -0.8261    0.0000 C   0  0  0  0  0  0  0  0  0  0  0  0
    7.1946   -0.8261    0.0000 C   0  0  0  0  0  0  0  0  0  0  0  0
    8.0606   -1.3261    0.0000 C   0  0  0  0  0  0  0  0  0  0  0  0
    7.1946    0.1739    0.0000 C   0  0  0  0  0  0  0  0  0  0  0  0
    2.8644   -2.3261    0.0000 C   0  0  0  0  0  0  0  0  0  0  0  0
    3.6734   -2.9139    0.0000 C   0  0  0  0  0  0  0  0  0  0  0  0
    3.3644   -3.8649    0.0000 C   0  0  0  0  0  0  0  0  0  0  0  0
    3.9522   -4.6739    0.0000 C   0  0  0  0  0  0  0  0  0  0  0  0
   11.6851    0.0751    0.0000 H   0  0  0  0  0  0  0  0  0  0  0  0
   12.6323    0.0633    0.0000 H   0  0  0  0  0  0  0  0  0  0  0  0
   13.1073    0.8860    0.0000 H   0  0  0  0  0  0  0  0  0  0  0  0
   12.4996    1.9385    0.0000 H   0  0  0  0  0  0  0  0  0  0  0  0
   11.5497    1.9385    0.0000 H   0  0  0  0  0  0  0  0  0  0  0  0
    3.1199    2.2816    0.0000 H   0  0  0  0  0  0  0  0  0  0  0  0
    3.5184    1.5913    0.0000 H   0  0  0  0  0  0  0  0  0  0  0  0
    5.6746    1.5913    0.0000 H   0  0  0  0  0  0  0  0  0  0  0  0
    6.0731    2.2816    0.0000 H   0  0  0  0  0  0  0  0  0  0  0  0
    3.5184    3.7565    0.0000 H   0  0  0  0  0  0  0  0  0  0  0  0
    3.1199    3.0663    0.0000 H   0  0  0  0  0  0  0  0  0  0  0  0
    6.0731    3.0663    0.0000 H   0  0  0  0  0  0  0  0  0  0  0  0
    5.6746    3.7565    0.0000 H   0  0  0  0  0  0  0  0  0  0  0  0
    9.7926    1.2939    0.0000 H   0  0  0  0  0  0  0  0  0  0  0  0
    5.2165    4.6739    0.0000 H   0  0  0  0  0  0  0  0  0  0  0  0
    4.5965    5.2939    0.0000 H   0  0  0  0  0  0  0  0  0  0  0  0
    3.9765    4.6739    0.0000 H   0  0  0  0  0  0  0  0  0  0  0  0
    3.1935    0.4839    0.0000 H   0  0  0  0  0  0  0  0  0  0  0  0
    9.4635   -1.1361    0.0000 H   0  0  0  0  0  0  0  0  0  0  0  0
    8.0606    1.2939    0.0000 H   0  0  0  0  0  0  0  0  0  0  0  0
    8.0606   -1.9461    0.0000 H   0  0  0  0  0  0  0  0  0  0  0  0
    6.6576    0.4839    0.0000 H   0  0  0  0  0  0  0  0  0  0  0  0
    2.3275   -1.0161    0.0000 H   0  0  0  0  0  0  0  0  0  0  0  0
    4.2631   -2.7223    0.0000 H   0  0  0  0  0  0  0  0  0  0  0  0
    2.0000   -4.3665    0.0000 H   0  0  0  0  0  0  0  0  0  0  0  0
    3.4506   -5.0384    0.0000 H   0  0  0  0  0  0  0  0  0  0  0  0
    4.3166   -5.1755    0.0000 H   0  0  0  0  0  0  0  0  0  0  0  0
    4.4538   -4.3095    0.0000 H   0  0  0  0  0  0  0  0  0  0  0  0
  1 26  1  0  0  0  0
  1 27  1  0  0  0  0
  2 14  2  0  0  0  0
  3 14  1  0  0  0  0
  3 20  1  0  0  0  0
  3 47  1  0  0  0  0
  4 15  1  0  0  0  0
  4 16  1  0  0  0  0
  4 19  1  0  0  0  0
  5 17  1  0  0  0  0
  5 18  1  0  0  0  0
  5 21  1  0  0  0  0
  6 19  2  0  0  0  0
  6 26  1  0  0  0  0
  7 25  1  0  0  0  0
  7 26  2  0  0  0  0
  8 25  1  0  0  0  0
  8 30  1  0  0  0  0
  8 56  1  0  0  0  0
  9 10  1  0  0  0  0
  9 30  2  0  0  0  0
 10 32  1  0  0  0  0
 10 58  1  0  0  0  0
 11 12  1  0  0  0  0
 11 13  1  0  0  0  0
 11 14  1  0  0  0  0
 11 34  1  0  0  0  0
 12 13  1  0  0  0  0
 12 35  1  0  0  0  0
 12 36  1  0  0  0  0
 13 37  1  0  0  0  0
 13 38  1  0  0  0  0
 15 17  1  0  0  0  0
 15 39  1  0  0  0  0
 15 40  1  0  0  0  0
 16 18  1  0  0  0  0
 16 41  1  0  0  0  0
 16 42  1  0  0  0  0
 17 43  1  0  0  0  0
 17 44  1  0  0  0  0
 18 45  1  0  0  0  0
 18 46  1  0  0  0  0
 19 22  1  0  0  0  0
 20 23  2  0  0  0  0
 20 24  1  0  0  0  0
 21 48  1  0  0  0  0
 21 49  1  0  0  0  0
 21 50  1  0  0  0  0
 22 25  2  0  0  0  0
 22 51  1  0  0  0  0
 23 28  1  0  0  0  0
 23 52  1  0  0  0  0
 24 29  2  0  0  0  0
 24 53  1  0  0  0  0
 27 28  2  0  0  0  0
 27 29  1  0  0  0  0
 28 54  1  0  0  0  0
 29 55  1  0  0  0  0
 30 31  1  0  0  0  0
 31 32  2  0  0  0  0
 31 57  1  0  0  0  0
 32 33  1  0  0  0  0
 33 59  1  0  0  0  0
 33 60  1  0  0  0  0
 33 61  1  0  0  0  0
M  END
> <PUBCHEM_COMPOUND_CID>
5494449

> <PUBCHEM_COMPOUND_CANONICALIZED>
1

> <PUBCHEM_CACTVS_COMPLEXITY>
650

> <PUBCHEM_CACTVS_HBOND_ACCEPTOR>
8

> <PUBCHEM_CACTVS_HBOND_DONOR>
3

> <PUBCHEM_CACTVS_ROTATABLE_BOND>
7

> <PUBCHEM_CACTVS_SUBSKEYS>
AAADceB74ABAAAAAAAAAAAAAGAAAAWAAAAA8WIAAAAAAAAAB8AAAHgQYAAAADQjB1gQz8ZfrEAiqASdydACS1CthCrAduTk4ZJiIaHLg2dGUpAh4nALIyCcQAAAAAAQAAAAAAAAACAAAAAAAAAAAAAAAAA==

> <PUBCHEM_IUPAC_OPENEYE_NAME>
N-[4-[4-(4-methylpiperazin-1-yl)-6-[(5-methyl-1H-pyrazol-3-yl)amino]pyrimidin-2-yl]sulfanylphenyl]cyclopropanecarboxamide

> <PUBCHEM_IUPAC_CAS_NAME>
N-[4-[[4-(4-methyl-1-piperazinyl)-6-[(5-methyl-1H-pyrazol-3-yl)amino]-2-pyrimidinyl]thio]phenyl]cyclopropanecarboxamide

> <PUBCHEM_IUPAC_NAME_MARKUP>
<I>N</I>-[4-[4-(4-methylpiperazin-1-yl)-6-[(5-methyl-1<I>H</I>-pyrazol-3-yl)amino]pyrimidin-2-yl]sulfanylphenyl]cyclopropanecarboxamide

> <PUBCHEM_IUPAC_NAME>
N-[4-[4-(4-methylpiperazin-1-yl)-6-[(5-methyl-1H-pyrazol-3-yl)amino]pyrimidin-2-yl]sulfanylphenyl]cyclopropanecarboxamide

> <PUBCHEM_IUPAC_SYSTEMATIC_NAME>
N-[4-[4-(4-methylpiperazin-1-yl)-6-[(5-methyl-1H-pyrazol-3-yl)amino]pyrimidin-2-yl]sulfanylphenyl]cyclopropanecarboxamide

> <PUBCHEM_IUPAC_TRADITIONAL_NAME>
N-[4-[[4-(4-methylpiperazino)-6-[(5-methyl-1H-pyrazol-3-yl)amino]pyrimidin-2-yl]thio]phenyl]cyclopropanecarboxamide

> <PUBCHEM_IUPAC_INCHI>
InChI=1S/C23H28N8OS/c1-15-13-20(29-28-15)25-19-14-21(31-11-9-30(2)10-12-31)27-23(26-19)33-18-7-5-17(6-8-18)24-22(32)16-3-4-16/h5-8,13-14,16H,3-4,9-12H2,1-2H3,(H,24,32)(H2,25,26,27,28,29)

> <PUBCHEM_IUPAC_INCHIKEY>
GCIKSSRWRFVXBI-UHFFFAOYSA-N

> <PUBCHEM_XLOGP3_AA>
3.4

> <PUBCHEM_EXACT_MASS>
464.210679

> <PUBCHEM_MOLECULAR_FORMULA>
C23H28N8OS

> <PUBCHEM_MOLECULAR_WEIGHT>
464.6

> <PUBCHEM_OPENEYE_CAN_SMILES>
CC1=CC(=NN1)NC2=CC(=NC(=N2)SC3=CC=C(C=C3)NC(=O)C4CC4)N5CCN(CC5)C

> <PUBCHEM_OPENEYE_ISO_SMILES>
CC1=CC(=NN1)NC2=CC(=NC(=N2)SC3=CC=C(C=C3)NC(=O)C4CC4)N5CCN(CC5)C

> <PUBCHEM_CACTVS_TPSA>
127

> <PUBCHEM_MONOISOTOPIC_WEIGHT>
464.210679

> <PUBCHEM_TOTAL_CHARGE>
0

> <PUBCHEM_HEAVY_ATOM_COUNT>
33

> <PUBCHEM_ATOM_DEF_STEREO_COUNT>
0

> <PUBCHEM_ATOM_UDEF_STEREO_COUNT>
0

> <PUBCHEM_BOND_DEF_STEREO_COUNT>
0

> <PUBCHEM_BOND_UDEF_STEREO_COUNT>
0

> <PUBCHEM_ISOTOPIC_ATOM_COUNT>
0

> <PUBCHEM_COMPONENT_COUNT>
1

> <PUBCHEM_CACTVS_TAUTO_COUNT>
-1

> <PUBCHEM_COORDINATE_TYPE>
1
5
255

> <PUBCHEM_BONDANNOTATIONS>
10  32  8
19  22  8
20  23  8
20  24  8
22  25  8
23  28  8
24  29  8
27  28  8
27  29  8
30  31  8
31  32  8
6  19  8
6  26  8
7  25  8
7  26  8
9  10  8
9  30  8

$$$$
104741
  -OEChem-02182015172D

 88 91  0     1  0  0  0  0  0999 V2000
   11.4954   -3.1972    0.0000 S   0  0  3  0  0  0  0  0  0  0  0  0
   14.2620   -6.1654    0.0000 F   0  0  0  0  0  0  0  0  0  0  0  0
   12.2621   -6.1885    0.0000 F   0  0  0  0  0  0  0  0  0  0  0  0
   13.2852   -8.1768    0.0000 F   0  0  0  0  0  0  0  0  0  0  0  0
   14.2735   -7.1653    0.0000 F   0  0  0  0  0  0  0  0  0  0  0  0
   12.2737   -7.1885    0.0000 F   0  0  0  0  0  0  0  0  0  0  0  0
    9.1857    8.0490    0.0000 O   0  0  0  0  0  0  0  0  0  0  0  0
    2.5357    3.7414    0.0000 O   0  0  0  0  0  0  0  0  0  0  0  0
   10.6352   -3.7072    0.0000 O   0  0  0  0  0  0  0  0  0  0  0  0
    7.9288    5.7937    0.0000 C   0  0  2  0  0  0  0  0  0  0  0  0
    7.9288    6.7937    0.0000 C   0  0  2  0  0  0  0  0  0  0  0  0
    7.0628    5.2937    0.0000 C   0  0  1  0  0  0  0  0  0  0  0  0
    6.1968    5.7937    0.0000 C   0  0  2  0  0  0  0  0  0  0  0  0
    7.0628    7.2937    0.0000 C   0  0  0  0  0  0  0  0  0  0  0  0
    8.8750    7.0985    0.0000 C   0  0  2  0  0  0  0  0  0  0  0  0
    8.8750    5.4890    0.0000 C   0  0  0  0  0  0  0  0  0  0  0  0
    7.0789    4.2522    0.0000 C   0  0  1  0  0  0  0  0  0  0  0  0
    6.1968    6.7937    0.0000 C   0  0  0  0  0  0  0  0  0  0  0  0
    9.4586    6.2937    0.0000 C   0  0  0  0  0  0  0  0  0  0  0  0
    7.9288    7.7937    0.0000 C   0  0  0  0  0  0  0  0  0  0  0  0
    5.2868    5.2869    0.0000 C   0  0  0  0  0  0  0  0  0  0  0  0
    6.1808    3.7245    0.0000 C   0  0  0  0  0  0  0  0  0  0  0  0
    7.9506    3.7623    0.0000 C   0  0  0  0  0  0  0  0  0  0  0  0
    5.2787    4.2453    0.0000 C   0  0  0  0  0  0  0  0  0  0  0  0
    7.9622    2.7623    0.0000 C   0  0  0  0  0  0  0  0  0  0  0  0
    4.3599    5.8510    0.0000 C   0  0  0  0  0  0  0  0  0  0  0  0
    4.3433    3.6956    0.0000 C   0  0  0  0  0  0  0  0  0  0  0  0
    8.8339    2.2724    0.0000 C   0  0  0  0  0  0  0  0  0  0  0  0
    3.4120    5.3230    0.0000 C   0  0  0  0  0  0  0  0  0  0  0  0
    3.4037    4.2381    0.0000 C   0  0  0  0  0  0  0  0  0  0  0  0
    8.8455    1.2724    0.0000 C   0  0  0  0  0  0  0  0  0  0  0  0
    9.7172    0.7825    0.0000 C   0  0  0  0  0  0  0  0  0  0  0  0
    9.7288   -0.2174    0.0000 C   0  0  0  0  0  0  0  0  0  0  0  0
   10.6005   -0.7074    0.0000 C   0  0  0  0  0  0  0  0  0  0  0  0
   10.6121   -1.7073    0.0000 C   0  0  0  0  0  0  0  0  0  0  0  0
   11.4839   -2.1973    0.0000 C   0  0  0  0  0  0  0  0  0  0  0  0
   12.3672   -3.6872    0.0000 C   0  0  0  0  0  0  0  0  0  0  0  0
   12.3787   -4.6871    0.0000 C   0  0  0  0  0  0  0  0  0  0  0  0
   13.2505   -5.1770    0.0000 C   0  0  0  0  0  0  0  0  0  0  0  0
   13.2620   -6.1770    0.0000 C   0  0  0  0  0  0  0  0  0  0  0  0
   13.2736   -7.1769    0.0000 C   0  0  0  0  0  0  0  0  0  0  0  0
    8.0188    4.9485    0.0000 H   0  0  0  0  0  0  0  0  0  0  0  0
    7.8022    4.8744    0.0000 H   0  0  0  0  0  0  0  0  0  0  0  0
    6.9329    6.2187    0.0000 H   0  0  0  0  0  0  0  0  0  0  0  0
    7.4613    7.7687    0.0000 H   0  0  0  0  0  0  0  0  0  0  0  0
    6.6643    7.7687    0.0000 H   0  0  0  0  0  0  0  0  0  0  0  0
    9.4875    7.1947    0.0000 H   0  0  0  0  0  0  0  0  0  0  0  0
    8.6240    4.9221    0.0000 H   0  0  0  0  0  0  0  0  0  0  0  0
    9.4124    5.1798    0.0000 H   0  0  0  0  0  0  0  0  0  0  0  0
    7.0848    3.6322    0.0000 H   0  0  0  0  0  0  0  0  0  0  0  0
    5.9847    7.3763    0.0000 H   0  0  0  0  0  0  0  0  0  0  0  0
    5.5862    6.6861    0.0000 H   0  0  0  0  0  0  0  0  0  0  0  0
    9.9195    5.8790    0.0000 H   0  0  0  0  0  0  0  0  0  0  0  0
    9.9195    6.7085    0.0000 H   0  0  0  0  0  0  0  0  0  0  0  0
    8.5488    7.7937    0.0000 H   0  0  0  0  0  0  0  0  0  0  0  0
    7.9288    8.4137    0.0000 H   0  0  0  0  0  0  0  0  0  0  0  0
    7.3088    7.7937    0.0000 H   0  0  0  0  0  0  0  0  0  0  0  0
    5.7835    3.2485    0.0000 H   0  0  0  0  0  0  0  0  0  0  0  0
    6.5818    3.2516    0.0000 H   0  0  0  0  0  0  0  0  0  0  0  0
    8.5624    3.6617    0.0000 H   0  0  0  0  0  0  0  0  0  0  0  0
    8.1559    4.3473    0.0000 H   0  0  0  0  0  0  0  0  0  0  0  0
    9.7924    8.1768    0.0000 H   0  0  0  0  0  0  0  0  0  0  0  0
    7.3504    2.8629    0.0000 H   0  0  0  0  0  0  0  0  0  0  0  0
    7.7569    2.1773    0.0000 H   0  0  0  0  0  0  0  0  0  0  0  0
    4.3719    6.4709    0.0000 H   0  0  0  0  0  0  0  0  0  0  0  0
    4.3457    3.0756    0.0000 H   0  0  0  0  0  0  0  0  0  0  0  0
    9.4457    2.1718    0.0000 H   0  0  0  0  0  0  0  0  0  0  0  0
    9.0392    2.8574    0.0000 H   0  0  0  0  0  0  0  0  0  0  0  0
    2.8787    5.6392    0.0000 H   0  0  0  0  0  0  0  0  0  0  0  0
    8.2337    1.3731    0.0000 H   0  0  0  0  0  0  0  0  0  0  0  0
    8.6402    0.6874    0.0000 H   0  0  0  0  0  0  0  0  0  0  0  0
   10.3290    0.6819    0.0000 H   0  0  0  0  0  0  0  0  0  0  0  0
    9.9225    1.3675    0.0000 H   0  0  0  0  0  0  0  0  0  0  0  0
    2.0000    4.0535    0.0000 H   0  0  0  0  0  0  0  0  0  0  0  0
    9.1170   -0.1168    0.0000 H   0  0  0  0  0  0  0  0  0  0  0  0
    9.5235   -0.8025    0.0000 H   0  0  0  0  0  0  0  0  0  0  0  0
   11.2123   -0.8080    0.0000 H   0  0  0  0  0  0  0  0  0  0  0  0
   10.8058   -0.1224    0.0000 H   0  0  0  0  0  0  0  0  0  0  0  0
   10.0003   -1.6067    0.0000 H   0  0  0  0  0  0  0  0  0  0  0  0
   10.4068   -2.2923    0.0000 H   0  0  0  0  0  0  0  0  0  0  0  0
   12.0956   -2.2979    0.0000 H   0  0  0  0  0  0  0  0  0  0  0  0
   11.6892   -1.6122    0.0000 H   0  0  0  0  0  0  0  0  0  0  0  0
   12.9790   -3.7878    0.0000 H   0  0  0  0  0  0  0  0  0  0  0  0
   12.5725   -3.1021    0.0000 H   0  0  0  0  0  0  0  0  0  0  0  0
   11.7669   -4.5865    0.0000 H   0  0  0  0  0  0  0  0  0  0  0  0
   12.1734   -5.2721    0.0000 H   0  0  0  0  0  0  0  0  0  0  0  0
   13.8623   -5.2776    0.0000 H   0  0  0  0  0  0  0  0  0  0  0  0
   13.4558   -4.5920    0.0000 H   0  0  0  0  0  0  0  0  0  0  0  0
  1  9  2  0  0  0  0
  1 36  1  0  0  0  0
  1 37  1  0  0  0  0
  2 40  1  0  0  0  0
  3 40  1  0  0  0  0
  4 41  1  0  0  0  0
  5 41  1  0  0  0  0
  6 41  1  0  0  0  0
 15  7  1  1  0  0  0
  7 62  1  0  0  0  0
  8 30  1  0  0  0  0
  8 74  1  0  0  0  0
 10 11  1  0  0  0  0
 10 12  1  0  0  0  0
 10 16  1  0  0  0  0
 10 42  1  6  0  0  0
 11 14  1  0  0  0  0
 11 15  1  0  0  0  0
 11 20  1  1  0  0  0
 12 13  1  0  0  0  0
 12 17  1  0  0  0  0
 12 43  1  1  0  0  0
 13 18  1  0  0  0  0
 13 21  1  0  0  0  0
 13 44  1  6  0  0  0
 14 18  1  0  0  0  0
 14 45  1  0  0  0  0
 14 46  1  0  0  0  0
 15 19  1  0  0  0  0
 15 47  1  0  0  0  0
 16 19  1  0  0  0  0
 16 48  1  0  0  0  0
 16 49  1  0  0  0  0
 17 22  1  0  0  0  0
 17 23  1  6  0  0  0
 17 50  1  0  0  0  0
 18 51  1  0  0  0  0
 18 52  1  0  0  0  0
 19 53  1  0  0  0  0
 19 54  1  0  0  0  0
 20 55  1  0  0  0  0
 20 56  1  0  0  0  0
 20 57  1  0  0  0  0
 21 24  2  0  0  0  0
 21 26  1  0  0  0  0
 22 24  1  0  0  0  0
 22 58  1  0  0  0  0
 22 59  1  0  0  0  0
 23 25  1  0  0  0  0
 23 60  1  0  0  0  0
 23 61  1  0  0  0  0
 24 27  1  0  0  0  0
 25 28  1  0  0  0  0
 25 63  1  0  0  0  0
 25 64  1  0  0  0  0
 26 29  2  0  0  0  0
 26 65  1  0  0  0  0
 27 30  2  0  0  0  0
 27 66  1  0  0  0  0
 28 31  1  0  0  0  0
 28 67  1  0  0  0  0
 28 68  1  0  0  0  0
 29 30  1  0  0  0  0
 29 69  1  0  0  0  0
 31 32  1  0  0  0  0
 31 70  1  0  0  0  0
 31 71  1  0  0  0  0
 32 33  1  0  0  0  0
 32 72  1  0  0  0  0
 32 73  1  0  0  0  0
 33 34  1  0  0  0  0
 33 75  1  0  0  0  0
 33 76  1  0  0  0  0
 34 35  1  0  0  0  0
 34 77  1  0  0  0  0
 34 78  1  0  0  0  0
 35 36  1  0  0  0  0
 35 79  1  0  0  0  0
 35 80  1  0  0  0  0
 36 81  1  0  0  0  0
 36 82  1  0  0  0  0
 37 38  1  0  0  0  0
 37 83  1  0  0  0  0
 37 84  1  0  0  0  0
 38 39  1  0  0  0  0
 38 85  1  0  0  0  0
 38 86  1  0  0  0  0
 39 40  1  0  0  0  0
 39 87  1  0  0  0  0
 39 88  1  0  0  0  0
 40 41  1  0  0  0  0
M  END
> <PUBCHEM_COMPOUND_CID>
104741

> <PUBCHEM_COMPOUND_CANONICALIZED>
1

> <PUBCHEM_CACTVS_COMPLEXITY>
854

> <PUBCHEM_CACTVS_HBOND_ACCEPTOR>
9

> <PUBCHEM_CACTVS_HBOND_DONOR>
2

> <PUBCHEM_CACTVS_ROTATABLE_BOND>
14

> <PUBCHEM_CACTVS_SUBSKEYS>
AAADcfB8McBAAAAAAAAAAAAAAAAAAYAAAAAwYMAAAAAAAGDBAAAAGwQACAAADxSk2BKyBoAAAgqAAiBCAEBCAAAgIBAIiAAGCIgINiKiERKAcAAkwBEomAeAwPAPoAABAAAQAADAAAYAACAAAIAADAAAAA==

> <PUBCHEM_IUPAC_OPENEYE_NAME>
(7R,8R,9S,13S,14S,17S)-13-methyl-7-[9-(4,4,5,5,5-pentafluoropentylsulfinyl)nonyl]-6,7,8,9,11,12,14,15,16,17-decahydrocyclopenta[a]phenanthrene-3,17-diol

> <PUBCHEM_IUPAC_CAS_NAME>
(7R,8R,9S,13S,14S,17S)-13-methyl-7-[9-(4,4,5,5,5-pentafluoropentylsulfinyl)nonyl]-6,7,8,9,11,12,14,15,16,17-decahydrocyclopenta[a]phenanthrene-3,17-diol

> <PUBCHEM_IUPAC_NAME_MARKUP>
(7<I>R</I>,8<I>R</I>,9<I>S</I>,13<I>S</I>,14<I>S</I>,17<I>S</I>)-13-methyl-7-[9-(4,4,5,5,5-pentafluoropentylsulfinyl)nonyl]-6,7,8,9,11,12,14,15,16,17-decahydrocyclopenta[a]phenanthrene-3,17-diol

> <PUBCHEM_IUPAC_NAME>
(7R,8R,9S,13S,14S,17S)-13-methyl-7-[9-(4,4,5,5,5-pentafluoropentylsulfinyl)nonyl]-6,7,8,9,11,12,14,15,16,17-decahydrocyclopenta[a]phenanthrene-3,17-diol

> <PUBCHEM_IUPAC_SYSTEMATIC_NAME>
(7R,8R,9S,13S,14S,17S)-13-methyl-7-[9-[4,4,5,5,5-pentakis(fluoranyl)pentylsulfinyl]nonyl]-6,7,8,9,11,12,14,15,16,17-decahydrocyclopenta[a]phenanthrene-3,17-diol

> <PUBCHEM_IUPAC_TRADITIONAL_NAME>
(7R,8R,9S,13S,14S,17S)-13-methyl-7-[9-(4,4,5,5,5-pentafluoropentylsulfinyl)nonyl]-6,7,8,9,11,12,14,15,16,17-decahydrocyclopenta[a]phenanthrene-3,17-diol

> <PUBCHEM_IUPAC_INCHI>
InChI=1S/C32H47F5O3S/c1-30-17-15-26-25-12-11-24(38)21-23(25)20-22(29(26)27(30)13-14-28(30)39)10-7-5-3-2-4-6-8-18-41(40)19-9-16-31(33,34)32(35,36)37/h11-12,21-22,26-29,38-39H,2-10,13-20H2,1H3/t22-,26-,27+,28+,29-,30+,41?/m1/s1

> <PUBCHEM_IUPAC_INCHIKEY>
VWUXBMIQPBEWFH-WCCTWKNTSA-N

> <PUBCHEM_XLOGP3>
9.2

> <PUBCHEM_EXACT_MASS>
606.316607

> <PUBCHEM_MOLECULAR_FORMULA>
C32H47F5O3S

> <PUBCHEM_MOLECULAR_WEIGHT>
606.8

> <PUBCHEM_OPENEYE_CAN_SMILES>
CC12CCC3C(C1CCC2O)C(CC4=C3C=CC(=C4)O)CCCCCCCCCS(=O)CCCC(C(F)(F)F)(F)F

> <PUBCHEM_OPENEYE_ISO_SMILES>
C[C@]12CC[C@H]3[C@H]([C@@H]1CC[C@@H]2O)[C@@H](CC4=C3C=CC(=C4)O)CCCCCCCCCS(=O)CCCC(C(F)(F)F)(F)F

> <PUBCHEM_CACTVS_TPSA>
76.7

> <PUBCHEM_MONOISOTOPIC_WEIGHT>
606.316607

> <PUBCHEM_TOTAL_CHARGE>
0

> <PUBCHEM_HEAVY_ATOM_COUNT>
41

> <PUBCHEM_ATOM_DEF_STEREO_COUNT>
6

> <PUBCHEM_ATOM_UDEF_STEREO_COUNT>
1

> <PUBCHEM_BOND_DEF_STEREO_COUNT>
0

> <PUBCHEM_BOND_UDEF_STEREO_COUNT>
0

> <PUBCHEM_ISOTOPIC_ATOM_COUNT>
0

> <PUBCHEM_COMPONENT_COUNT>
1

> <PUBCHEM_CACTVS_TAUTO_COUNT>
-1

> <PUBCHEM_COORDINATE_TYPE>
1
5
255

> <PUBCHEM_BONDANNOTATIONS>
1  36  3
10  42  6
11  20  5
12  43  5
13  44  6
17  23  6
21  24  8
21  26  8
24  27  8
26  29  8
27  30  8
29  30  8
15  7  5

$$$$
44462760
  -OEChem-02182015172D

 55 58  0     0  0  0  0  0  0999 V2000
    5.9641    3.4604    0.0000 S   0  0  0  0  0  0  0  0  0  0  0  0
    3.7320   -2.0784    0.0000 S   0  0  0  0  0  0  0  0  0  0  0  0
    3.7320    0.9216    0.0000 F   0  0  0  0  0  0  0  0  0  0  0  0
    5.4641   -3.0784    0.0000 F   0  0  0  0  0  0  0  0  0  0  0  0
    2.0000   -3.0784    0.0000 F   0  0  0  0  0  0  0  0  0  0  0  0
    2.7320   -2.0784    0.0000 O   0  0  0  0  0  0  0  0  0  0  0  0
    4.7320   -2.0784    0.0000 O   0  0  0  0  0  0  0  0  0  0  0  0
    4.6551    2.5094    0.0000 N   0  0  0  0  0  0  0  0  0  0  0  0
    3.7320   -1.0784    0.0000 N   0  0  0  0  0  0  0  0  0  0  0  0
    7.4321    1.2222    0.0000 N   0  0  0  0  0  0  0  0  0  0  0  0
    9.1263    1.5823    0.0000 N   0  0  0  0  0  0  0  0  0  0  0  0
    8.5910   -0.0650    0.0000 N   0  0  0  0  0  0  0  0  0  0  0  0
    4.3763    4.2694    0.0000 C   0  0  0  0  0  0  0  0  0  0  0  0
    4.9641    3.4604    0.0000 C   0  0  0  0  0  0  0  0  0  0  0  0
    3.7885    5.0784    0.0000 C   0  0  0  0  0  0  0  0  0  0  0  0
    5.1853    4.8572    0.0000 C   0  0  0  0  0  0  0  0  0  0  0  0
    3.5673    3.6816    0.0000 C   0  0  0  0  0  0  0  0  0  0  0  0
    5.4641    1.9216    0.0000 C   0  0  0  0  0  0  0  0  0  0  0  0
    6.2731    2.5094    0.0000 C   0  0  0  0  0  0  0  0  0  0  0  0
    5.4641    0.9216    0.0000 C   0  0  0  0  0  0  0  0  0  0  0  0
    4.5981    0.4216    0.0000 C   0  0  0  0  0  0  0  0  0  0  0  0
    7.2242    2.2003    0.0000 C   0  0  0  0  0  0  0  0  0  0  0  0
    4.5981   -0.5784    0.0000 C   0  0  0  0  0  0  0  0  0  0  0  0
    6.3301    0.4216    0.0000 C   0  0  0  0  0  0  0  0  0  0  0  0
    5.4641   -1.0784    0.0000 C   0  0  0  0  0  0  0  0  0  0  0  0
    6.3301   -0.5784    0.0000 C   0  0  0  0  0  0  0  0  0  0  0  0
    7.9673    2.8695    0.0000 C   0  0  0  0  0  0  0  0  0  0  0  0
    3.7320   -3.0784    0.0000 C   0  0  0  0  0  0  0  0  0  0  0  0
    4.5981   -3.5784    0.0000 C   0  0  0  0  0  0  0  0  0  0  0  0
    2.8660   -3.5784    0.0000 C   0  0  0  0  0  0  0  0  0  0  0  0
    8.9184    2.5604    0.0000 C   0  0  0  0  0  0  0  0  0  0  0  0
    8.3831    0.9132    0.0000 C   0  0  0  0  0  0  0  0  0  0  0  0
    4.5981   -4.5784    0.0000 C   0  0  0  0  0  0  0  0  0  0  0  0
    2.8660   -4.5784    0.0000 C   0  0  0  0  0  0  0  0  0  0  0  0
    3.7320   -5.0784    0.0000 C   0  0  0  0  0  0  0  0  0  0  0  0
    4.2901    5.4429    0.0000 H   0  0  0  0  0  0  0  0  0  0  0  0
    3.4241    5.5800    0.0000 H   0  0  0  0  0  0  0  0  0  0  0  0
    3.2869    4.7140    0.0000 H   0  0  0  0  0  0  0  0  0  0  0  0
    5.5498    4.3556    0.0000 H   0  0  0  0  0  0  0  0  0  0  0  0
    5.6869    5.2216    0.0000 H   0  0  0  0  0  0  0  0  0  0  0  0
    4.8209    5.3588    0.0000 H   0  0  0  0  0  0  0  0  0  0  0  0
    3.2029    4.1832    0.0000 H   0  0  0  0  0  0  0  0  0  0  0  0
    3.0657    3.3172    0.0000 H   0  0  0  0  0  0  0  0  0  0  0  0
    3.9317    3.1800    0.0000 H   0  0  0  0  0  0  0  0  0  0  0  0
    6.8671    0.7316    0.0000 H   0  0  0  0  0  0  0  0  0  0  0  0
    3.1951   -0.7684    0.0000 H   0  0  0  0  0  0  0  0  0  0  0  0
    5.4641   -1.6984    0.0000 H   0  0  0  0  0  0  0  0  0  0  0  0
    6.8671   -0.8884    0.0000 H   0  0  0  0  0  0  0  0  0  0  0  0
    7.8384    3.4759    0.0000 H   0  0  0  0  0  0  0  0  0  0  0  0
    9.3791    2.9753    0.0000 H   0  0  0  0  0  0  0  0  0  0  0  0
    5.1350   -4.8884    0.0000 H   0  0  0  0  0  0  0  0  0  0  0  0
    2.3291   -4.8884    0.0000 H   0  0  0  0  0  0  0  0  0  0  0  0
    3.7320   -5.6984    0.0000 H   0  0  0  0  0  0  0  0  0  0  0  0
    9.1807   -0.2566    0.0000 H   0  0  0  0  0  0  0  0  0  0  0  0
    8.1303   -0.4798    0.0000 H   0  0  0  0  0  0  0  0  0  0  0  0
  1 14  1  0  0  0  0
  1 19  1  0  0  0  0
  2  6  2  0  0  0  0
  2  7  2  0  0  0  0
  2  9  1  0  0  0  0
  2 28  1  0  0  0  0
  3 21  1  0  0  0  0
  4 29  1  0  0  0  0
  5 30  1  0  0  0  0
  8 14  2  0  0  0  0
  8 18  1  0  0  0  0
  9 23  1  0  0  0  0
  9 46  1  0  0  0  0
 10 22  2  0  0  0  0
 10 32  1  0  0  0  0
 11 31  1  0  0  0  0
 11 32  2  0  0  0  0
 12 32  1  0  0  0  0
 12 54  1  0  0  0  0
 12 55  1  0  0  0  0
 13 14  1  0  0  0  0
 13 15  1  0  0  0  0
 13 16  1  0  0  0  0
 13 17  1  0  0  0  0
 15 36  1  0  0  0  0
 15 37  1  0  0  0  0
 15 38  1  0  0  0  0
 16 39  1  0  0  0  0
 16 40  1  0  0  0  0
 16 41  1  0  0  0  0
 17 42  1  0  0  0  0
 17 43  1  0  0  0  0
 17 44  1  0  0  0  0
 18 19  2  0  0  0  0
 18 20  1  0  0  0  0
 19 22  1  0  0  0  0
 20 21  2  0  0  0  0
 20 24  1  0  0  0  0
 21 23  1  0  0  0  0
 22 27  1  0  0  0  0
 23 25  2  0  0  0  0
 24 26  2  0  0  0  0
 24 45  1  0  0  0  0
 25 26  1  0  0  0  0
 25 47  1  0  0  0  0
 26 48  1  0  0  0  0
 27 31  2  0  0  0  0
 27 49  1  0  0  0  0
 28 29  2  0  0  0  0
 28 30  1  0  0  0  0
 29 33  1  0  0  0  0
 30 34  2  0  0  0  0
 31 50  1  0  0  0  0
 33 35  2  0  0  0  0
 33 51  1  0  0  0  0
 34 35  1  0  0  0  0
 34 52  1  0  0  0  0
 35 53  1  0  0  0  0
M  END
> <PUBCHEM_COMPOUND_CID>
44462760

> <PUBCHEM_COMPOUND_CANONICALIZED>
1

> <PUBCHEM_CACTVS_COMPLEXITY>
817

> <PUBCHEM_CACTVS_HBOND_ACCEPTOR>
11

> <PUBCHEM_CACTVS_HBOND_DONOR>
2

> <PUBCHEM_CACTVS_ROTATABLE_BOND>
6

> <PUBCHEM_CACTVS_SUBSKEYS>
AAADceB7sYBgAAAAAAAAAAAAAAAAAWAAAAA8YIAAAAAAAAAB9AAAHQQQQAAADgjBXgw/0ZZIEAqkAzRnZHDC8LlxCrgJ2DQ4ZJiIKKLg2dGEJAhokALoyCcQgMAOAAAAQAAAAAAAAACAAAAAAAAAAAAAAA==

> <PUBCHEM_IUPAC_OPENEYE_NAME>
N-[3-[5-(2-aminopyrimidin-4-yl)-2-tert-butyl-thiazol-4-yl]-2-fluoro-phenyl]-2,6-difluoro-benzenesulfonamide

> <PUBCHEM_IUPAC_CAS_NAME>
N-[3-[5-(2-amino-4-pyrimidinyl)-2-tert-butyl-4-thiazolyl]-2-fluorophenyl]-2,6-difluorobenzenesulfonamide

> <PUBCHEM_IUPAC_NAME_MARKUP>
<I>N</I>-[3-[5-(2-aminopyrimidin-4-yl)-2-<I>tert</I>-butyl-1,3-thiazol-4-yl]-2-fluorophenyl]-2,6-difluorobenzenesulfonamide

> <PUBCHEM_IUPAC_NAME>
N-[3-[5-(2-aminopyrimidin-4-yl)-2-tert-butyl-1,3-thiazol-4-yl]-2-fluorophenyl]-2,6-difluorobenzenesulfonamide

> <PUBCHEM_IUPAC_SYSTEMATIC_NAME>
N-[3-[5-(2-azanylpyrimidin-4-yl)-2-tert-butyl-1,3-thiazol-4-yl]-2-fluoranyl-phenyl]-2,6-bis(fluoranyl)benzenesulfonamide

> <PUBCHEM_IUPAC_TRADITIONAL_NAME>
N-[3-[5-(2-aminopyrimidin-4-yl)-2-tert-butyl-thiazol-4-yl]-2-fluoro-phenyl]-2,6-difluoro-benzenesulfonamide

> <PUBCHEM_IUPAC_INCHI>
InChI=1S/C23H20F3N5O2S2/c1-23(2,3)21-30-18(19(34-21)16-10-11-28-22(27)29-16)12-6-4-9-15(17(12)26)31-35(32,33)20-13(24)7-5-8-14(20)25/h4-11,31H,1-3H3,(H2,27,28,29)

> <PUBCHEM_IUPAC_INCHIKEY>
BFSMGDJOXZAERB-UHFFFAOYSA-N

> <PUBCHEM_XLOGP3_AA>
4.8

> <PUBCHEM_EXACT_MASS>
519.101052

> <PUBCHEM_MOLECULAR_FORMULA>
C23H20F3N5O2S2

> <PUBCHEM_MOLECULAR_WEIGHT>
519.6

> <PUBCHEM_OPENEYE_CAN_SMILES>
CC(C)(C)C1=NC(=C(S1)C2=NC(=NC=C2)N)C3=C(C(=CC=C3)NS(=O)(=O)C4=C(C=CC=C4F)F)F

> <PUBCHEM_OPENEYE_ISO_SMILES>
CC(C)(C)C1=NC(=C(S1)C2=NC(=NC=C2)N)C3=C(C(=CC=C3)NS(=O)(=O)C4=C(C=CC=C4F)F)F

> <PUBCHEM_CACTVS_TPSA>
148

> <PUBCHEM_MONOISOTOPIC_WEIGHT>
519.101052

> <PUBCHEM_TOTAL_CHARGE>
0

> <PUBCHEM_HEAVY_ATOM_COUNT>
35

> <PUBCHEM_ATOM_DEF_STEREO_COUNT>
0

> <PUBCHEM_ATOM_UDEF_STEREO_COUNT>
0

> <PUBCHEM_BOND_DEF_STEREO_COUNT>
0

> <PUBCHEM_BOND_UDEF_STEREO_COUNT>
0

> <PUBCHEM_ISOTOPIC_ATOM_COUNT>
0

> <PUBCHEM_COMPONENT_COUNT>
1

> <PUBCHEM_CACTVS_TAUTO_COUNT>
-1

> <PUBCHEM_COORDINATE_TYPE>
1
5
255

> <PUBCHEM_BONDANNOTATIONS>
1  14  8
1  19  8
10  22  8
10  32  8
11  31  8
11  32  8
18  19  8
20  21  8
20  24  8
21  23  8
22  27  8
23  25  8
24  26  8
25  26  8
27  31  8
28  29  8
28  30  8
29  33  8
30  34  8
33  35  8
34  35  8
8  14  8
8  18  8

$$$$
44631912
  -OEChem-02182015172D

 62 66  0     0  0  0  0  0  0999 V2000
   13.3610   -0.4294    0.0000 O   0  0  0  0  0  0  0  0  0  0  0  0
   11.2774   -0.3681    0.0000 N   0  0  0  0  0  0  0  0  0  0  0  0
    9.4651   -0.5634    0.0000 N   0  0  0  0  0  0  0  0  0  0  0  0
    4.2690    1.4366    0.0000 N   0  0  0  0  0  0  0  0  0  0  0  0
   13.3610    1.3027    0.0000 N   0  0  0  0  0  0  0  0  0  0  0  0
    8.5991    0.9366    0.0000 N   0  0  0  0  0  0  0  0  0  0  0  0
    2.5369    2.4366    0.0000 N   0  0  0  0  0  0  0  0  0  0  0  0
    7.7331   -0.5634    0.0000 N   0  0  0  0  0  0  0  0  0  0  0  0
    6.0010   -0.5634    0.0000 N   0  0  0  0  0  0  0  0  0  0  0  0
   11.5880   -1.3186    0.0000 C   0  0  0  0  0  0  0  0  0  0  0  0
   11.0017   -2.1286    0.0000 C   0  0  0  0  0  0  0  0  0  0  0  0
   12.5396   -1.6260    0.0000 C   0  0  0  0  0  0  0  0  0  0  0  0
   11.5908   -2.9366    0.0000 C   0  0  0  0  0  0  0  0  0  0  0  0
   12.5414   -2.6260    0.0000 C   0  0  0  0  0  0  0  0  0  0  0  0
   11.8610    0.4366    0.0000 C   0  0  0  0  0  0  0  0  0  0  0  0
   10.3312   -0.0634    0.0000 C   0  0  0  0  0  0  0  0  0  0  0  0
   10.3312    0.9366    0.0000 C   0  0  0  0  0  0  0  0  0  0  0  0
   11.2774    1.2414    0.0000 C   0  0  0  0  0  0  0  0  0  0  0  0
   12.8610    0.4366    0.0000 C   0  0  0  0  0  0  0  0  0  0  0  0
    9.4651    1.4366    0.0000 C   0  0  0  0  0  0  0  0  0  0  0  0
    8.5991   -0.0634    0.0000 C   0  0  0  0  0  0  0  0  0  0  0  0
    4.2690    2.4366    0.0000 C   0  0  0  0  0  0  0  0  0  0  0  0
    3.4030    0.9366    0.0000 C   0  0  0  0  0  0  0  0  0  0  0  0
    3.4030    2.9366    0.0000 C   0  0  0  0  0  0  0  0  0  0  0  0
    2.5369    1.4366    0.0000 C   0  0  0  0  0  0  0  0  0  0  0  0
    5.1350    0.9366    0.0000 C   0  0  0  0  0  0  0  0  0  0  0  0
   14.3610    1.3027    0.0000 C   0  0  0  0  0  0  0  0  0  0  0  0
   12.8610    2.1687    0.0000 C   0  0  0  0  0  0  0  0  0  0  0  0
    6.8671   -0.0634    0.0000 C   0  0  0  0  0  0  0  0  0  0  0  0
    6.0010    1.4366    0.0000 C   0  0  0  0  0  0  0  0  0  0  0  0
    5.1350   -0.0634    0.0000 C   0  0  0  0  0  0  0  0  0  0  0  0
    6.8671    0.9366    0.0000 C   0  0  0  0  0  0  0  0  0  0  0  0
   10.9755   -1.2227    0.0000 H   0  0  0  0  0  0  0  0  0  0  0  0
   10.5402   -1.7146    0.0000 H   0  0  0  0  0  0  0  0  0  0  0  0
   10.5416   -2.5443    0.0000 H   0  0  0  0  0  0  0  0  0  0  0  0
   13.1564   -1.6897    0.0000 H   0  0  0  0  0  0  0  0  0  0  0  0
   12.6675   -1.0193    0.0000 H   0  0  0  0  0  0  0  0  0  0  0  0
   11.0544   -3.2476    0.0000 H   0  0  0  0  0  0  0  0  0  0  0  0
   11.8440   -3.5026    0.0000 H   0  0  0  0  0  0  0  0  0  0  0  0
   12.6713   -3.2322    0.0000 H   0  0  0  0  0  0  0  0  0  0  0  0
   13.1579   -2.5601    0.0000 H   0  0  0  0  0  0  0  0  0  0  0  0
   11.4700    1.8307    0.0000 H   0  0  0  0  0  0  0  0  0  0  0  0
    9.4651    2.0566    0.0000 H   0  0  0  0  0  0  0  0  0  0  0  0
    4.8796    2.3290    0.0000 H   0  0  0  0  0  0  0  0  0  0  0  0
    4.4810    3.0192    0.0000 H   0  0  0  0  0  0  0  0  0  0  0  0
    3.0044    0.4617    0.0000 H   0  0  0  0  0  0  0  0  0  0  0  0
    3.8015    0.4617    0.0000 H   0  0  0  0  0  0  0  0  0  0  0  0
    3.8015    3.4116    0.0000 H   0  0  0  0  0  0  0  0  0  0  0  0
    3.0044    3.4116    0.0000 H   0  0  0  0  0  0  0  0  0  0  0  0
    1.9264    1.5443    0.0000 H   0  0  0  0  0  0  0  0  0  0  0  0
    2.3249    0.8540    0.0000 H   0  0  0  0  0  0  0  0  0  0  0  0
    2.0000    2.7466    0.0000 H   0  0  0  0  0  0  0  0  0  0  0  0
    7.7331   -1.1834    0.0000 H   0  0  0  0  0  0  0  0  0  0  0  0
   14.3610    0.6827    0.0000 H   0  0  0  0  0  0  0  0  0  0  0  0
   14.9810    1.3027    0.0000 H   0  0  0  0  0  0  0  0  0  0  0  0
   14.3610    1.9227    0.0000 H   0  0  0  0  0  0  0  0  0  0  0  0
   13.3979    2.4787    0.0000 H   0  0  0  0  0  0  0  0  0  0  0  0
   12.5510    2.7056    0.0000 H   0  0  0  0  0  0  0  0  0  0  0  0
   12.3241    1.8587    0.0000 H   0  0  0  0  0  0  0  0  0  0  0  0
    6.0010    2.0566    0.0000 H   0  0  0  0  0  0  0  0  0  0  0  0
    4.5981   -0.3734    0.0000 H   0  0  0  0  0  0  0  0  0  0  0  0
    7.4040    1.2466    0.0000 H   0  0  0  0  0  0  0  0  0  0  0  0
  1 19  2  0  0  0  0
  2 10  1  0  0  0  0
  2 15  1  0  0  0  0
  2 16  1  0  0  0  0
  3 16  2  0  0  0  0
  3 21  1  0  0  0  0
  4 22  1  0  0  0  0
  4 23  1  0  0  0  0
  4 26  1  0  0  0  0
  5 19  1  0  0  0  0
  5 27  1  0  0  0  0
  5 28  1  0  0  0  0
  6 20  1  0  0  0  0
  6 21  2  0  0  0  0
  7 24  1  0  0  0  0
  7 25  1  0  0  0  0
  7 52  1  0  0  0  0
  8 21  1  0  0  0  0
  8 29  1  0  0  0  0
  8 53  1  0  0  0  0
  9 29  2  0  0  0  0
  9 31  1  0  0  0  0
 10 11  1  0  0  0  0
 10 12  1  0  0  0  0
 10 33  1  0  0  0  0
 11 13  1  0  0  0  0
 11 34  1  0  0  0  0
 11 35  1  0  0  0  0
 12 14  1  0  0  0  0
 12 36  1  0  0  0  0
 12 37  1  0  0  0  0
 13 14  1  0  0  0  0
 13 38  1  0  0  0  0
 13 39  1  0  0  0  0
 14 40  1  0  0  0  0
 14 41  1  0  0  0  0
 15 18  2  0  0  0  0
 15 19  1  0  0  0  0
 16 17  1  0  0  0  0
 17 18  1  0  0  0  0
 17 20  2  0  0  0  0
 18 42  1  0  0  0  0
 20 43  1  0  0  0  0
 22 24  1  0  0  0  0
 22 44  1  0  0  0  0
 22 45  1  0  0  0  0
 23 25  1  0  0  0  0
 23 46  1  0  0  0  0
 23 47  1  0  0  0  0
 24 48  1  0  0  0  0
 24 49  1  0  0  0  0
 25 50  1  0  0  0  0
 25 51  1  0  0  0  0
 26 30  1  0  0  0  0
 26 31  2  0  0  0  0
 27 54  1  0  0  0  0
 27 55  1  0  0  0  0
 27 56  1  0  0  0  0
 28 57  1  0  0  0  0
 28 58  1  0  0  0  0
 28 59  1  0  0  0  0
 29 32  1  0  0  0  0
 30 32  2  0  0  0  0
 30 60  1  0  0  0  0
 31 61  1  0  0  0  0
 32 62  1  0  0  0  0
M  END
> <PUBCHEM_COMPOUND_CID>
44631912

> <PUBCHEM_COMPOUND_CANONICALIZED>
1

> <PUBCHEM_CACTVS_COMPLEXITY>
636

> <PUBCHEM_CACTVS_HBOND_ACCEPTOR>
7

> <PUBCHEM_CACTVS_HBOND_DONOR>
2

> <PUBCHEM_CACTVS_ROTATABLE_BOND>
5

> <PUBCHEM_CACTVS_SUBSKEYS>
AAADceB74AAAAAAAAAAAAAAAAAAAAeIAAAAsWLAAAAAAAFgB/gAAHgAQAAAADCjBnwQ/8N/MEACoAzd3dACCgCk3EqAJ2KG4dNiIaPLA3fGUJQhokgLIyaYYAQAMAAAAAAAAAAAAAAAAAAAAAAAAAAAAAA==

> <PUBCHEM_IUPAC_OPENEYE_NAME>
7-cyclopentyl-N,N-dimethyl-2-[(5-piperazin-1-yl-2-pyridyl)amino]pyrrolo[2,3-d]pyrimidine-6-carboxamide

> <PUBCHEM_IUPAC_CAS_NAME>
7-cyclopentyl-N,N-dimethyl-2-[[5-(1-piperazinyl)-2-pyridinyl]amino]-6-pyrrolo[2,3-d]pyrimidinecarboxamide

> <PUBCHEM_IUPAC_NAME_MARKUP>
7-cyclopentyl-<I>N</I>,<I>N</I>-dimethyl-2-[(5-piperazin-1-ylpyridin-2-yl)amino]pyrrolo[2,3-d]pyrimidine-6-carboxamide

> <PUBCHEM_IUPAC_NAME>
7-cyclopentyl-N,N-dimethyl-2-[(5-piperazin-1-ylpyridin-2-yl)amino]pyrrolo[2,3-d]pyrimidine-6-carboxamide

> <PUBCHEM_IUPAC_SYSTEMATIC_NAME>
7-cyclopentyl-N,N-dimethyl-2-[(5-piperazin-1-ylpyridin-2-yl)amino]pyrrolo[2,3-d]pyrimidine-6-carboxamide

> <PUBCHEM_IUPAC_TRADITIONAL_NAME>
7-cyclopentyl-N,N-dimethyl-2-[(5-piperazino-2-pyridyl)amino]pyrrolo[2,3-d]pyrimidine-6-carboxamide

> <PUBCHEM_IUPAC_INCHI>
InChI=1S/C23H30N8O/c1-29(2)22(32)19-13-16-14-26-23(28-21(16)31(19)17-5-3-4-6-17)27-20-8-7-18(15-25-20)30-11-9-24-10-12-30/h7-8,13-15,17,24H,3-6,9-12H2,1-2H3,(H,25,26,27,28)

> <PUBCHEM_IUPAC_INCHIKEY>
RHXHGRAEPCAFML-UHFFFAOYSA-N

> <PUBCHEM_XLOGP3_AA>
2.2

> <PUBCHEM_EXACT_MASS>
434.254258

> <PUBCHEM_MOLECULAR_FORMULA>
C23H30N8O

> <PUBCHEM_MOLECULAR_WEIGHT>
434.5

> <PUBCHEM_OPENEYE_CAN_SMILES>
CN(C)C(=O)C1=CC2=CN=C(N=C2N1C3CCCC3)NC4=NC=C(C=C4)N5CCNCC5

> <PUBCHEM_OPENEYE_ISO_SMILES>
CN(C)C(=O)C1=CC2=CN=C(N=C2N1C3CCCC3)NC4=NC=C(C=C4)N5CCNCC5

> <PUBCHEM_CACTVS_TPSA>
91.2

> <PUBCHEM_MONOISOTOPIC_WEIGHT>
434.254258

> <PUBCHEM_TOTAL_CHARGE>
0

> <PUBCHEM_HEAVY_ATOM_COUNT>
32

> <PUBCHEM_ATOM_DEF_STEREO_COUNT>
0

> <PUBCHEM_ATOM_UDEF_STEREO_COUNT>
0

> <PUBCHEM_BOND_DEF_STEREO_COUNT>
0

> <PUBCHEM_BOND_UDEF_STEREO_COUNT>
0

> <PUBCHEM_ISOTOPIC_ATOM_COUNT>
0

> <PUBCHEM_COMPONENT_COUNT>
1

> <PUBCHEM_CACTVS_TAUTO_COUNT>
-1

> <PUBCHEM_COORDINATE_TYPE>
1
5
255

> <PUBCHEM_BONDANNOTATIONS>
15  18  8
16  17  8
17  18  8
17  20  8
2  15  8
2  16  8
26  30  8
26  31  8
29  32  8
3  16  8
3  21  8
30  32  8
6  20  8
6  21  8
9  29  8
9  31  8

$$$$
84691
  -OEChem-02182015172D

 11  6  0     0  0  0  0  0  0999 V2000
    0.8660    1.6800    0.0000 Pt  0  2  0  0  0  0  0  0  0  0  0  0
    1.7320    2.1800    0.0000 Cl  0  5  0  0  0  0  0  0  0  0  0  0
    0.0000    2.1800    0.0000 Cl  0  5  0  0  0  0  0  0  0  0  0  0
    4.2690    0.6200    0.0000 N   0  0  0  0  0  0  0  0  0  0  0  0
    4.2690    3.5500    0.0000 N   0  0  0  0  0  0  0  0  0  0  0  0
    4.8059    0.9300    0.0000 H   0  0  0  0  0  0  0  0  0  0  0  0
    3.7320    0.9300    0.0000 H   0  0  0  0  0  0  0  0  0  0  0  0
    4.2690    0.0000    0.0000 H   0  0  0  0  0  0  0  0  0  0  0  0
    4.8059    3.8600    0.0000 H   0  0  0  0  0  0  0  0  0  0  0  0
    3.7320    3.8600    0.0000 H   0  0  0  0  0  0  0  0  0  0  0  0
    4.2690    2.9300    0.0000 H   0  0  0  0  0  0  0  0  0  0  0  0
  4  6  1  0  0  0  0
  4  7  1  0  0  0  0
  4  8  1  0  0  0  0
  5  9  1  0  0  0  0
  5 10  1  0  0  0  0
  5 11  1  0  0  0  0
M  CHG  3   1   2   2  -1   3  -1
M  END
> <PUBCHEM_COMPOUND_CID>
84691

> <PUBCHEM_COMPOUND_CANONICALIZED>
1

> <PUBCHEM_CACTVS_COMPLEXITY>
0

> <PUBCHEM_CACTVS_HBOND_ACCEPTOR>
4

> <PUBCHEM_CACTVS_HBOND_DONOR>
2

> <PUBCHEM_CACTVS_ROTATABLE_BOND>
0

> <PUBCHEM_CACTVS_SUBSKEYS>
AAADcYADAAAGAAAAAAAABAAAAAAAAAAAAAAAAAAAAAAAAAAAAAAAAAAQAAAAAAAAAAAAAAAAAAAAAAAAAAAAAAAAAAAAAAAAAAAAAAAAAAAAAAAAAAAAAAAAAAAAAAAAAAAAAAAAAAAAAAAAAAAAAAAAAA==

> <PUBCHEM_IUPAC_OPENEYE_NAME>
ammonia;platinum(2+);dichloride

> <PUBCHEM_IUPAC_CAS_NAME>
ammonia;platinum(2+);dichloride

> <PUBCHEM_IUPAC_NAME_MARKUP>
azane;platinum(2+);dichloride

> <PUBCHEM_IUPAC_NAME>
azane;platinum(2+);dichloride

> <PUBCHEM_IUPAC_SYSTEMATIC_NAME>
azane;platinum(2+);dichloride

> <PUBCHEM_IUPAC_TRADITIONAL_NAME>
ammonia;platinum(2+);dichloride

> <PUBCHEM_IUPAC_INCHI>
InChI=1S/2ClH.2H3N.Pt/h2*1H;2*1H3;/q;;;;+2/p-2

> <PUBCHEM_IUPAC_INCHIKEY>
LXZZYRPGZAFOLE-UHFFFAOYSA-L

> <PUBCHEM_EXACT_MASS>
298.955598

> <PUBCHEM_MOLECULAR_FORMULA>
Cl2H6N2Pt

> <PUBCHEM_MOLECULAR_WEIGHT>
300

> <PUBCHEM_OPENEYE_CAN_SMILES>
N.N.[Cl-].[Cl-].[Pt+2]

> <PUBCHEM_OPENEYE_ISO_SMILES>
N.N.[Cl-].[Cl-].[Pt+2]

> <PUBCHEM_CACTVS_TPSA>
2

> <PUBCHEM_MONOISOTOPIC_WEIGHT>
298.955598

> <PUBCHEM_TOTAL_CHARGE>
0

> <PUBCHEM_HEAVY_ATOM_COUNT>
5

> <PUBCHEM_ATOM_DEF_STEREO_COUNT>
0

> <PUBCHEM_ATOM_UDEF_STEREO_COUNT>
0

> <PUBCHEM_BOND_DEF_STEREO_COUNT>
0

> <PUBCHEM_BOND_UDEF_STEREO_COUNT>
0

> <PUBCHEM_ISOTOPIC_ATOM_COUNT>
0

> <PUBCHEM_COMPONENT_COUNT>
5

> <PUBCHEM_CACTVS_TAUTO_COUNT>
-1

> <PUBCHEM_COORDINATE_TYPE>
1
5
255

$$$$
11634725
  -OEChem-02182015172D

 54 57  0     1  0  0  0  0  0999 V2000
    4.3800   -4.6418    0.0000 Cl  0  0  0  0  0  0  0  0  0  0  0  0
   10.5224    1.6418    0.0000 Cl  0  0  0  0  0  0  0  0  0  0  0  0
   12.2544    4.6418    0.0000 F   0  0  0  0  0  0  0  0  0  0  0  0
    2.6166   -2.2148    0.0000 O   0  0  0  0  0  0  0  0  0  0  0  0
    2.8423    0.4213    0.0000 O   0  0  0  0  0  0  0  0  0  0  0  0
    4.4246   -0.2832    0.0000 N   0  0  0  0  0  0  0  0  0  0  0  0
    3.7436    2.3054    0.0000 N   0  0  0  0  0  0  0  0  0  0  0  0
    7.0583    2.6418    0.0000 N   0  0  0  0  0  0  0  0  0  0  0  0
    8.7903    2.6418    0.0000 N   0  0  0  0  0  0  0  0  0  0  0  0
    7.9243    4.1418    0.0000 N   0  0  0  0  0  0  0  0  0  0  0  0
    4.0179   -1.1967    0.0000 C   0  0  1  0  0  0  0  0  0  0  0  0
    4.6056   -2.0057    0.0000 C   0  0  0  0  0  0  0  0  0  0  0  0
    3.0233   -1.3012    0.0000 C   0  0  0  0  0  0  0  0  0  0  0  0
    4.2436    1.4394    0.0000 C   0  0  0  0  0  0  0  0  0  0  0  0
    5.3262    2.6418    0.0000 C   0  0  0  0  0  0  0  0  0  0  0  0
    3.8368    0.5259    0.0000 C   0  0  0  0  0  0  0  0  0  0  0  0
    5.2217    1.6473    0.0000 C   0  0  0  0  0  0  0  0  0  0  0  0
    6.1922    3.1418    0.0000 C   0  0  0  0  0  0  0  0  0  0  0  0
    4.4127    3.0486    0.0000 C   0  0  0  0  0  0  0  0  0  0  0  0
    4.1989   -2.9193    0.0000 C   0  0  0  0  0  0  0  0  0  0  0  0
    5.6002   -1.9012    0.0000 C   0  0  0  0  0  0  0  0  0  0  0  0
    6.1922    4.1418    0.0000 C   0  0  0  0  0  0  0  0  0  0  0  0
    4.7867   -3.7283    0.0000 C   0  0  0  0  0  0  0  0  0  0  0  0
    6.1880   -2.7102    0.0000 C   0  0  0  0  0  0  0  0  0  0  0  0
    5.7812   -3.6238    0.0000 C   0  0  0  0  0  0  0  0  0  0  0  0
    7.9243    3.1418    0.0000 C   0  0  0  0  0  0  0  0  0  0  0  0
    7.0583    4.6418    0.0000 C   0  0  0  0  0  0  0  0  0  0  0  0
    5.3262    4.6418    0.0000 C   0  0  0  0  0  0  0  0  0  0  0  0
    9.6564    3.1418    0.0000 C   0  0  0  0  0  0  0  0  0  0  0  0
   10.5224    2.6418    0.0000 C   0  0  0  0  0  0  0  0  0  0  0  0
    9.6564    4.1418    0.0000 C   0  0  0  0  0  0  0  0  0  0  0  0
   11.3884    3.1418    0.0000 C   0  0  0  0  0  0  0  0  0  0  0  0
   10.5224    4.6418    0.0000 C   0  0  0  0  0  0  0  0  0  0  0  0
   11.3884    4.1418    0.0000 C   0  0  0  0  0  0  0  0  0  0  0  0
    4.6345   -1.1319    0.0000 H   0  0  0  0  0  0  0  0  0  0  0  0
    5.0412   -0.2184    0.0000 H   0  0  0  0  0  0  0  0  0  0  0  0
    3.0666   -0.6827    0.0000 H   0  0  0  0  0  0  0  0  0  0  0  0
    2.4218   -1.1513    0.0000 H   0  0  0  0  0  0  0  0  0  0  0  0
    5.6824    1.2324    0.0000 H   0  0  0  0  0  0  0  0  0  0  0  0
    3.1270    2.3702    0.0000 H   0  0  0  0  0  0  0  0  0  0  0  0
    4.2838    3.6550    0.0000 H   0  0  0  0  0  0  0  0  0  0  0  0
    3.5823   -2.9841    0.0000 H   0  0  0  0  0  0  0  0  0  0  0  0
    5.8524   -1.3348    0.0000 H   0  0  0  0  0  0  0  0  0  0  0  0
    6.8046   -2.6454    0.0000 H   0  0  0  0  0  0  0  0  0  0  0  0
    6.1456   -4.1254    0.0000 H   0  0  0  0  0  0  0  0  0  0  0  0
    7.0583    5.2618    0.0000 H   0  0  0  0  0  0  0  0  0  0  0  0
    5.6362    5.1788    0.0000 H   0  0  0  0  0  0  0  0  0  0  0  0
    4.7893    4.9518    0.0000 H   0  0  0  0  0  0  0  0  0  0  0  0
    5.0162    4.1049    0.0000 H   0  0  0  0  0  0  0  0  0  0  0  0
    2.0000   -2.2796    0.0000 H   0  0  0  0  0  0  0  0  0  0  0  0
    8.7903    2.0218    0.0000 H   0  0  0  0  0  0  0  0  0  0  0  0
    9.1194    4.4518    0.0000 H   0  0  0  0  0  0  0  0  0  0  0  0
   11.9253    2.8318    0.0000 H   0  0  0  0  0  0  0  0  0  0  0  0
   10.5224    5.2618    0.0000 H   0  0  0  0  0  0  0  0  0  0  0  0
  1 23  1  0  0  0  0
  2 30  1  0  0  0  0
  3 34  1  0  0  0  0
  4 13  1  0  0  0  0
  4 50  1  0  0  0  0
  5 16  2  0  0  0  0
 11  6  1  1  0  0  0
  6 16  1  0  0  0  0
  6 36  1  0  0  0  0
  7 14  1  0  0  0  0
  7 19  1  0  0  0  0
  7 40  1  0  0  0  0
  8 18  2  0  0  0  0
  8 26  1  0  0  0  0
  9 26  1  0  0  0  0
  9 29  1  0  0  0  0
  9 51  1  0  0  0  0
 10 26  2  0  0  0  0
 10 27  1  0  0  0  0
 11 12  1  0  0  0  0
 11 13  1  0  0  0  0
 11 35  1  0  0  0  0
 12 20  2  0  0  0  0
 12 21  1  0  0  0  0
 13 37  1  0  0  0  0
 13 38  1  0  0  0  0
 14 16  1  0  0  0  0
 14 17  2  0  0  0  0
 15 17  1  0  0  0  0
 15 18  1  0  0  0  0
 15 19  2  0  0  0  0
 17 39  1  0  0  0  0
 18 22  1  0  0  0  0
 19 41  1  0  0  0  0
 20 23  1  0  0  0  0
 20 42  1  0  0  0  0
 21 24  2  0  0  0  0
 21 43  1  0  0  0  0
 22 27  2  0  0  0  0
 22 28  1  0  0  0  0
 23 25  2  0  0  0  0
 24 25  1  0  0  0  0
 24 44  1  0  0  0  0
 25 45  1  0  0  0  0
 27 46  1  0  0  0  0
 28 47  1  0  0  0  0
 28 48  1  0  0  0  0
 28 49  1  0  0  0  0
 29 30  2  0  0  0  0
 29 31  1  0  0  0  0
 30 32  1  0  0  0  0
 31 33  2  0  0  0  0
 31 52  1  0  0  0  0
 32 34  2  0  0  0  0
 32 53  1  0  0  0  0
 33 34  1  0  0  0  0
 33 54  1  0  0  0  0
M  END
> <PUBCHEM_COMPOUND_CID>
11634725

> <PUBCHEM_COMPOUND_CANONICALIZED>
1

> <PUBCHEM_CACTVS_COMPLEXITY>
679

> <PUBCHEM_CACTVS_HBOND_ACCEPTOR>
6

> <PUBCHEM_CACTVS_HBOND_DONOR>
4

> <PUBCHEM_CACTVS_ROTATABLE_BOND>
7

> <PUBCHEM_CACTVS_SUBSKEYS>
AAADceB7sQAGAAAAAAAAAAAAAAAAAWAAAAA8YIAAAAAAAAAB9AAAHwIQCAAADCrhni4/0JbJkgCoAzV3dACCgCk3B6AJ2aG4ZtiKePLB3/HUZQhs1gPYyaeYyeCeAAAAIAAAABAAAABAAAAAIAAAAAAAAA==

> <PUBCHEM_IUPAC_OPENEYE_NAME>
4-[2-(2-chloro-4-fluoro-anilino)-5-methyl-pyrimidin-4-yl]-N-[(1S)-1-(3-chlorophenyl)-2-hydroxy-ethyl]-1H-pyrrole-2-carboxamide

> <PUBCHEM_IUPAC_CAS_NAME>
4-[2-(2-chloro-4-fluoroanilino)-5-methyl-4-pyrimidinyl]-N-[(1S)-1-(3-chlorophenyl)-2-hydroxyethyl]-1H-pyrrole-2-carboxamide

> <PUBCHEM_IUPAC_NAME_MARKUP>
4-[2-(2-chloro-4-fluoroanilino)-5-methylpyrimidin-4-yl]-<I>N</I>-[(1<I>S</I>)-1-(3-chlorophenyl)-2-hydroxyethyl]-1<I>H</I>-pyrrole-2-carboxamide

> <PUBCHEM_IUPAC_NAME>
4-[2-(2-chloro-4-fluoroanilino)-5-methylpyrimidin-4-yl]-N-[(1S)-1-(3-chlorophenyl)-2-hydroxyethyl]-1H-pyrrole-2-carboxamide

> <PUBCHEM_IUPAC_SYSTEMATIC_NAME>
4-[2-[(2-chloranyl-4-fluoranyl-phenyl)amino]-5-methyl-pyrimidin-4-yl]-N-[(1S)-1-(3-chlorophenyl)-2-oxidanyl-ethyl]-1H-pyrrole-2-carboxamide

> <PUBCHEM_IUPAC_TRADITIONAL_NAME>
4-[2-(2-chloro-4-fluoro-anilino)-5-methyl-pyrimidin-4-yl]-N-[(1S)-1-(3-chlorophenyl)-2-hydroxy-ethyl]-1H-pyrrole-2-carboxamide

> <PUBCHEM_IUPAC_INCHI>
InChI=1S/C24H20Cl2FN5O2/c1-13-10-29-24(31-19-6-5-17(27)9-18(19)26)32-22(13)15-8-20(28-11-15)23(34)30-21(12-33)14-3-2-4-16(25)7-14/h2-11,21,28,33H,12H2,1H3,(H,30,34)(H,29,31,32)/t21-/m1/s1

> <PUBCHEM_IUPAC_INCHIKEY>
WUTVMXLIGHTZJC-OAQYLSRUSA-N

> <PUBCHEM_XLOGP3_AA>
4.7

> <PUBCHEM_EXACT_MASS>
499.097808

> <PUBCHEM_MOLECULAR_FORMULA>
C24H20Cl2FN5O2

> <PUBCHEM_MOLECULAR_WEIGHT>
500.3

> <PUBCHEM_OPENEYE_CAN_SMILES>
CC1=CN=C(N=C1C2=CNC(=C2)C(=O)NC(CO)C3=CC(=CC=C3)Cl)NC4=C(C=C(C=C4)F)Cl

> <PUBCHEM_OPENEYE_ISO_SMILES>
CC1=CN=C(N=C1C2=CNC(=C2)C(=O)N[C@H](CO)C3=CC(=CC=C3)Cl)NC4=C(C=C(C=C4)F)Cl

> <PUBCHEM_CACTVS_TPSA>
103

> <PUBCHEM_MONOISOTOPIC_WEIGHT>
499.097808

> <PUBCHEM_TOTAL_CHARGE>
0

> <PUBCHEM_HEAVY_ATOM_COUNT>
34

> <PUBCHEM_ATOM_DEF_STEREO_COUNT>
1

> <PUBCHEM_ATOM_UDEF_STEREO_COUNT>
0

> <PUBCHEM_BOND_DEF_STEREO_COUNT>
0

> <PUBCHEM_BOND_UDEF_STEREO_COUNT>
0

> <PUBCHEM_ISOTOPIC_ATOM_COUNT>
0

> <PUBCHEM_COMPONENT_COUNT>
1

> <PUBCHEM_CACTVS_TAUTO_COUNT>
-1

> <PUBCHEM_COORDINATE_TYPE>
1
5
255

> <PUBCHEM_BONDANNOTATIONS>
10  26  8
10  27  8
12  20  8
12  21  8
14  17  8
15  17  8
15  19  8
18  22  8
20  23  8
21  24  8
22  27  8
23  25  8
24  25  8
29  30  8
29  31  8
30  32  8
31  33  8
32  34  8
33  34  8
11  6  5
7  14  8
7  19  8
8  18  8
8  26  8

$$$$
6710780
  -OEChem-02182015172D

117125  0     1  0  0  0  0  0999 V2000
    6.8102   -4.6227    0.0000 O   0  0  0  0  0  0  0  0  0  0  0  0
    8.0777   -2.6680    0.0000 O   0  0  0  0  0  0  0  0  0  0  0  0
    8.8208   -3.3371    0.0000 O   0  0  0  0  0  0  0  0  0  0  0  0
    8.6130   -4.3152    0.0000 O   0  0  0  0  0  0  0  0  0  0  0  0
    8.1801    1.8223    0.0000 O   0  0  0  0  0  0  0  0  0  0  0  0
    8.0974   -5.7817    0.0000 O   0  0  0  0  0  0  0  0  0  0  0  0
    6.5287    0.5093    0.0000 O   0  0  0  0  0  0  0  0  0  0  0  0
    5.2439    0.5543    0.0000 O   0  0  0  0  0  0  0  0  0  0  0  0
    9.1930    5.7695    0.0000 O   0  0  0  0  0  0  0  0  0  0  0  0
    4.3838   -2.3940    0.0000 N   0  0  3  0  0  0  0  0  0  0  0  0
    7.4632   -1.3934    0.0000 N   0  0  3  0  0  0  0  0  0  0  0  0
    6.8864    5.0410    0.0000 N   0  0  3  0  0  0  0  0  0  0  0  0
    4.6681    1.8859    0.0000 N   0  0  0  0  0  0  0  0  0  0  0  0
    5.9235   -1.8937    0.0000 C   0  0  1  0  0  0  0  0  0  0  0  0
    5.2980   -2.5883    0.0000 C   0  0  2  0  0  0  0  0  0  0  0  0
    6.8378   -2.0880    0.0000 C   0  0  2  0  0  0  0  0  0  0  0  0
    5.5869   -3.4773    0.0000 C   0  0  1  0  0  0  0  0  0  0  0  0
    7.1266   -2.9770    0.0000 C   0  0  1  0  0  0  0  0  0  0  0  0
    5.5384   -0.8581    0.0000 C   0  0  0  0  0  0  0  0  0  0  0  0
    6.5012   -3.6716    0.0000 C   0  0  2  0  0  0  0  0  0  0  0  0
    6.2601   -0.3101    0.0000 C   0  0  0  0  0  0  0  0  0  0  0  0
    4.0949   -1.5050    0.0000 C   0  0  0  0  0  0  0  0  0  0  0  0
    5.8959   -4.4284    0.0000 C   0  0  0  0  0  0  0  0  0  0  0  0
    7.1744   -0.5045    0.0000 C   0  0  0  0  0  0  0  0  0  0  0  0
    4.9614   -4.1719    0.0000 C   0  0  0  0  0  0  0  0  0  0  0  0
    3.7583   -3.0886    0.0000 C   0  0  0  0  0  0  0  0  0  0  0  0
    4.0472   -3.9776    0.0000 C   0  0  0  0  0  0  0  0  0  0  0  0
    7.8698   -3.6462    0.0000 C   0  0  0  0  0  0  0  0  0  0  0  0
    5.9713    0.5788    0.0000 C   0  0  0  0  0  0  0  0  0  0  0  0
    8.4143   -1.0844    0.0000 C   0  0  0  0  0  0  0  0  0  0  0  0
    7.7998    0.1902    0.0000 C   0  0  0  0  0  0  0  0  0  0  0  0
    5.2268   -5.1715    0.0000 C   0  0  0  0  0  0  0  0  0  0  0  0
    6.5967    1.2735    0.0000 C   0  0  0  0  0  0  0  0  0  0  0  0
    7.5110    1.0791    0.0000 C   0  0  0  0  0  0  0  0  0  0  0  0
    6.2877    2.2245    0.0000 C   0  0  1  0  0  0  0  0  0  0  0  0
    7.1192   -5.5738    0.0000 C   0  0  0  0  0  0  0  0  0  0  0  0
    7.2388    2.5336    0.0000 C   0  0  0  0  0  0  0  0  0  0  0  0
    5.3605    2.5991    0.0000 C   0  0  0  0  0  0  0  0  0  0  0  0
    7.7687    3.3816    0.0000 C   0  0  3  0  0  0  0  0  0  0  0  0
    5.9131    1.2974    0.0000 C   0  0  0  0  0  0  0  0  0  0  0  0
    6.4501   -6.3169    0.0000 C   0  0  0  0  0  0  0  0  0  0  0  0
    9.5640   -4.0063    0.0000 C   0  0  0  0  0  0  0  0  0  0  0  0
    8.6440    3.9029    0.0000 C   0  0  0  0  0  0  0  0  0  0  0  0
    7.6295    4.3719    0.0000 C   0  0  0  0  0  0  0  0  0  0  0  0
    4.8910    3.4821    0.0000 C   0  0  0  0  0  0  0  0  0  0  0  0
    8.6631    4.9214    0.0000 C   0  0  1  0  0  0  0  0  0  0  0  0
    7.8080    5.4752    0.0000 C   0  0  0  0  0  0  0  0  0  0  0  0
    5.0990    4.4602    0.0000 C   0  0  0  0  0  0  0  0  0  0  0  0
    5.8870    5.0759    0.0000 C   0  0  0  0  0  0  0  0  0  0  0  0
    9.1583    1.6144    0.0000 C   0  0  0  0  0  0  0  0  0  0  0  0
    3.9125    3.3069    0.0000 C   0  0  0  0  0  0  0  0  0  0  0  0
    3.7750    2.3224    0.0000 C   0  0  0  0  0  0  0  0  0  0  0  0
    9.6625    4.8865    0.0000 C   0  0  0  0  0  0  0  0  0  0  0  0
    3.1059    3.9562    0.0000 C   0  0  0  0  0  0  0  0  0  0  0  0
    2.8214    1.9189    0.0000 C   0  0  0  0  0  0  0  0  0  0  0  0
    7.6676    0.6694    0.0000 C   0  0  0  0  0  0  0  0  0  0  0  0
   10.1319    4.0036    0.0000 C   0  0  0  0  0  0  0  0  0  0  0  0
    2.1432    3.5749    0.0000 C   0  0  0  0  0  0  0  0  0  0  0  0
    2.0000    2.5494    0.0000 C   0  0  0  0  0  0  0  0  0  0  0  0
    5.0354   -1.7800    0.0000 H   0  0  0  0  0  0  0  0  0  0  0  0
    7.6692   -2.2648    0.0000 H   0  0  0  0  0  0  0  0  0  0  0  0
    6.1147   -0.6294    0.0000 H   0  0  0  0  0  0  0  0  0  0  0  0
    5.2972   -0.2869    0.0000 H   0  0  0  0  0  0  0  0  0  0  0  0
    7.1076   -3.8006    0.0000 H   0  0  0  0  0  0  0  0  0  0  0  0
    3.8617   -0.9306    0.0000 H   0  0  0  0  0  0  0  0  0  0  0  0
    3.5125   -1.7176    0.0000 H   0  0  0  0  0  0  0  0  0  0  0  0
    6.2776   -4.9169    0.0000 H   0  0  0  0  0  0  0  0  0  0  0  0
    6.4433   -4.1373    0.0000 H   0  0  0  0  0  0  0  0  0  0  0  0
    5.1530   -4.7616    0.0000 H   0  0  0  0  0  0  0  0  0  0  0  0
    3.3766   -2.6001    0.0000 H   0  0  0  0  0  0  0  0  0  0  0  0
    3.2109   -3.3797    0.0000 H   0  0  0  0  0  0  0  0  0  0  0  0
    3.6323   -4.4384    0.0000 H   0  0  0  0  0  0  0  0  0  0  0  0
    5.3648    0.7078    0.0000 H   0  0  0  0  0  0  0  0  0  0  0  0
    8.4925   -2.2072    0.0000 H   0  0  0  0  0  0  0  0  0  0  0  0
    8.6059   -1.6740    0.0000 H   0  0  0  0  0  0  0  0  0  0  0  0
    9.0039   -0.8928    0.0000 H   0  0  0  0  0  0  0  0  0  0  0  0
    8.2227   -0.4947    0.0000 H   0  0  0  0  0  0  0  0  0  0  0  0
    8.4063    0.0613    0.0000 H   0  0  0  0  0  0  0  0  0  0  0  0
    4.7660   -4.7566    0.0000 H   0  0  0  0  0  0  0  0  0  0  0  0
    4.8119   -5.6323    0.0000 H   0  0  0  0  0  0  0  0  0  0  0  0
    5.6875   -5.5864    0.0000 H   0  0  0  0  0  0  0  0  0  0  0  0
    7.2532    1.9137    0.0000 H   0  0  0  0  0  0  0  0  0  0  0  0
    7.8367    2.3696    0.0000 H   0  0  0  0  0  0  0  0  0  0  0  0
    8.2024    2.9385    0.0000 H   0  0  0  0  0  0  0  0  0  0  0  0
    5.9894   -5.9020    0.0000 H   0  0  0  0  0  0  0  0  0  0  0  0
    6.0352   -6.7776    0.0000 H   0  0  0  0  0  0  0  0  0  0  0  0
    6.9108   -6.7318    0.0000 H   0  0  0  0  0  0  0  0  0  0  0  0
    9.1491   -4.4670    0.0000 H   0  0  0  0  0  0  0  0  0  0  0  0
   10.0247   -4.4211    0.0000 H   0  0  0  0  0  0  0  0  0  0  0  0
    9.9788   -3.5455    0.0000 H   0  0  0  0  0  0  0  0  0  0  0  0
    8.8576    3.3208    0.0000 H   0  0  0  0  0  0  0  0  0  0  0  0
    9.2554    4.0056    0.0000 H   0  0  0  0  0  0  0  0  0  0  0  0
    8.2424    4.2784    0.0000 H   0  0  0  0  0  0  0  0  0  0  0  0
    7.8948    4.9322    0.0000 H   0  0  0  0  0  0  0  0  0  0  0  0
    4.3572    1.3495    0.0000 H   0  0  0  0  0  0  0  0  0  0  0  0
    8.2351    5.9246    0.0000 H   0  0  0  0  0  0  0  0  0  0  0  0
    7.4449    5.9778    0.0000 H   0  0  0  0  0  0  0  0  0  0  0  0
    4.8734    5.0378    0.0000 H   0  0  0  0  0  0  0  0  0  0  0  0
    4.4810    4.4098    0.0000 H   0  0  0  0  0  0  0  0  0  0  0  0
    6.0854    5.6633    0.0000 H   0  0  0  0  0  0  0  0  0  0  0  0
    5.3812    5.4345    0.0000 H   0  0  0  0  0  0  0  0  0  0  0  0
    9.0294    1.0079    0.0000 H   0  0  0  0  0  0  0  0  0  0  0  0
    9.7647    1.4855    0.0000 H   0  0  0  0  0  0  0  0  0  0  0  0
    9.2872    2.2208    0.0000 H   0  0  0  0  0  0  0  0  0  0  0  0
   10.2521    5.0781    0.0000 H   0  0  0  0  0  0  0  0  0  0  0  0
    9.5762    5.5005    0.0000 H   0  0  0  0  0  0  0  0  0  0  0  0
    8.9019    6.3169    0.0000 H   0  0  0  0  0  0  0  0  0  0  0  0
    3.1988    4.5692    0.0000 H   0  0  0  0  0  0  0  0  0  0  0  0
    2.7427    1.3040    0.0000 H   0  0  0  0  0  0  0  0  0  0  0  0
    7.7538    0.0554    0.0000 H   0  0  0  0  0  0  0  0  0  0  0  0
    8.2815    0.7557    0.0000 H   0  0  0  0  0  0  0  0  0  0  0  0
    7.5813    1.2834    0.0000 H   0  0  0  0  0  0  0  0  0  0  0  0
    9.5845    3.7125    0.0000 H   0  0  0  0  0  0  0  0  0  0  0  0
   10.4230    3.4562    0.0000 H   0  0  0  0  0  0  0  0  0  0  0  0
   10.6794    4.2946    0.0000 H   0  0  0  0  0  0  0  0  0  0  0  0
    1.6558    3.9581    0.0000 H   0  0  0  0  0  0  0  0  0  0  0  0
    1.4262    2.3144    0.0000 H   0  0  0  0  0  0  0  0  0  0  0  0
 20  1  1  6  0  0  0
  1 36  1  0  0  0  0
 18  2  1  6  0  0  0
  2 74  1  0  0  0  0
  3 28  1  0  0  0  0
  3 42  1  0  0  0  0
  4 28  2  0  0  0  0
  5 34  1  0  0  0  0
  5 50  1  0  0  0  0
  6 36  2  0  0  0  0
  7 40  1  0  0  0  0
  7 56  1  0  0  0  0
  8 40  2  0  0  0  0
 46  9  1  1  0  0  0
  9107  1  0  0  0  0
 10 15  1  0  0  0  0
 10 22  1  0  0  0  0
 10 26  1  0  0  0  0
 11 16  1  0  0  0  0
 11 24  1  0  0  0  0
 11 30  1  0  0  0  0
 12 44  1  0  0  0  0
 12 47  1  0  0  0  0
 12 49  1  0  0  0  0
 13 38  1  0  0  0  0
 13 52  1  0  0  0  0
 13 95  1  0  0  0  0
 14 15  1  0  0  0  0
 14 16  1  0  0  0  0
 14 19  1  6  0  0  0
 14 21  1  0  0  0  0
 15 17  1  0  0  0  0
 15 60  1  1  0  0  0
 16 18  1  0  0  0  0
 16 61  1  6  0  0  0
 17 20  1  0  0  0  0
 17 23  1  1  0  0  0
 17 25  1  0  0  0  0
 18 20  1  0  0  0  0
 18 28  1  0  0  0  0
 19 22  1  0  0  0  0
 19 62  1  0  0  0  0
 19 63  1  0  0  0  0
 20 64  1  0  0  0  0
 21 24  1  0  0  0  0
 21 29  2  0  0  0  0
 22 65  1  0  0  0  0
 22 66  1  0  0  0  0
 23 32  1  0  0  0  0
 23 67  1  0  0  0  0
 23 68  1  0  0  0  0
 24 31  2  0  0  0  0
 25 27  2  0  0  0  0
 25 69  1  0  0  0  0
 26 27  1  0  0  0  0
 26 70  1  0  0  0  0
 26 71  1  0  0  0  0
 27 72  1  0  0  0  0
 29 33  1  0  0  0  0
 29 73  1  0  0  0  0
 30 75  1  0  0  0  0
 30 76  1  0  0  0  0
 30 77  1  0  0  0  0
 31 34  1  0  0  0  0
 31 78  1  0  0  0  0
 32 79  1  0  0  0  0
 32 80  1  0  0  0  0
 32 81  1  0  0  0  0
 33 34  2  0  0  0  0
 33 35  1  0  0  0  0
 35 37  1  0  0  0  0
 35 38  1  0  0  0  0
 35 40  1  1  0  0  0
 36 41  1  0  0  0  0
 37 39  1  0  0  0  0
 37 82  1  0  0  0  0
 37 83  1  0  0  0  0
 38 45  2  0  0  0  0
 39 43  1  0  0  0  0
 39 44  1  0  0  0  0
 39 84  1  0  0  0  0
 41 85  1  0  0  0  0
 41 86  1  0  0  0  0
 41 87  1  0  0  0  0
 42 88  1  0  0  0  0
 42 89  1  0  0  0  0
 42 90  1  0  0  0  0
 43 46  1  0  0  0  0
 43 91  1  0  0  0  0
 43 92  1  0  0  0  0
 44 93  1  0  0  0  0
 44 94  1  0  0  0  0
 45 48  1  0  0  0  0
 45 51  1  0  0  0  0
 46 47  1  0  0  0  0
 46 53  1  0  0  0  0
 47 96  1  0  0  0  0
 47 97  1  0  0  0  0
 48 49  1  0  0  0  0
 48 98  1  0  0  0  0
 48 99  1  0  0  0  0
 49100  1  0  0  0  0
 49101  1  0  0  0  0
 50102  1  0  0  0  0
 50103  1  0  0  0  0
 50104  1  0  0  0  0
 51 52  1  0  0  0  0
 51 54  2  0  0  0  0
 52 55  2  0  0  0  0
 53 57  1  0  0  0  0
 53105  1  0  0  0  0
 53106  1  0  0  0  0
 54 58  1  0  0  0  0
 54108  1  0  0  0  0
 55 59  1  0  0  0  0
 55109  1  0  0  0  0
 56110  1  0  0  0  0
 56111  1  0  0  0  0
 56112  1  0  0  0  0
 57113  1  0  0  0  0
 57114  1  0  0  0  0
 57115  1  0  0  0  0
 58 59  2  0  0  0  0
 58116  1  0  0  0  0
 59117  1  0  0  0  0
M  END
> <PUBCHEM_COMPOUND_CID>
6710780

> <PUBCHEM_COMPOUND_CANONICALIZED>
1

> <PUBCHEM_CACTVS_COMPLEXITY>
1700

> <PUBCHEM_CACTVS_HBOND_ACCEPTOR>
12

> <PUBCHEM_CACTVS_HBOND_DONOR>
3

> <PUBCHEM_CACTVS_ROTATABLE_BOND>
10

> <PUBCHEM_CACTVS_SUBSKEYS>
AAADcfB/vAAAAAAAAAAAAAAAAAAAAWLFgAA8YMECAAAAAFiB9AAAHgAQCAAAD3zhngYyzvPJlgCoAyTyTAKCiCAhIiAImSF+bJgPJv7E9ZuGcChn8Bnb6Af62fOfqAACAgAKAABQgAYECBSgAAAAAAAAAA==

> <PUBCHEM_IUPAC_OPENEYE_NAME>
methyl (1R,9R,10S,11R,12R,19R)-11-acetoxy-12-ethyl-4-[(13S,17S)-17-ethyl-17-hydroxy-13-methoxycarbonyl-1,11-diazatetracyclo[13.3.1.04,12.05,10]nonadeca-4(12),5,7,9-tetraen-13-yl]-10-hydroxy-5-methoxy-8-methyl-8,16-diazapentacyclo[10.6.1.01,9.02,7.016,19]nonadeca-2,4,6,13-tetraene-10-carboxylate

> <PUBCHEM_IUPAC_CAS_NAME>
(1R,9R,10S,11R,12R,19R)-11-acetyloxy-12-ethyl-4-[(13S,17S)-17-ethyl-17-hydroxy-13-methoxycarbonyl-1,11-diazatetracyclo[13.3.1.04,12.05,10]nonadeca-4(12),5,7,9-tetraen-13-yl]-10-hydroxy-5-methoxy-8-methyl-8,16-diazapentacyclo[10.6.1.01,9.02,7.016,19]nonadeca-2,4,6,13-tetraene-10-carboxylic acid methyl ester

> <PUBCHEM_IUPAC_NAME_MARKUP>
methyl (1<I>R</I>,9<I>R</I>,10<I>S</I>,11<I>R</I>,12<I>R</I>,19<I>R</I>)-11-acetyloxy-12-ethyl-4-[(13<I>S</I>,17<I>S</I>)-17-ethyl-17-hydroxy-13-methoxycarbonyl-1,11-diazatetracyclo[13.3.1.0<SUP>4,12</SUP>.0<SUP>5,10</SUP>]nonadeca-4(12),5,7,9-tetraen-13-yl]-10-hydroxy-5-methoxy-8-methyl-8,16-diazapentacyclo[10.6.1.0<SUP>1,9</SUP>.0<SUP>2,7</SUP>.0<SUP>16,19</SUP>]nonadeca-2,4,6,13-tetraene-10-carboxylate

> <PUBCHEM_IUPAC_NAME>
methyl (1R,9R,10S,11R,12R,19R)-11-acetyloxy-12-ethyl-4-[(13S,17S)-17-ethyl-17-hydroxy-13-methoxycarbonyl-1,11-diazatetracyclo[13.3.1.04,12.05,10]nonadeca-4(12),5,7,9-tetraen-13-yl]-10-hydroxy-5-methoxy-8-methyl-8,16-diazapentacyclo[10.6.1.01,9.02,7.016,19]nonadeca-2,4,6,13-tetraene-10-carboxylate

> <PUBCHEM_IUPAC_SYSTEMATIC_NAME>
methyl (1R,9R,10S,11R,12R,19R)-11-acetyloxy-12-ethyl-4-[(13S,17S)-17-ethyl-13-methoxycarbonyl-17-oxidanyl-1,11-diazatetracyclo[13.3.1.04,12.05,10]nonadeca-4(12),5,7,9-tetraen-13-yl]-5-methoxy-8-methyl-10-oxidanyl-8,16-diazapentacyclo[10.6.1.01,9.02,7.016,19]nonadeca-2,4,6,13-tetraene-10-carboxylate

> <PUBCHEM_IUPAC_TRADITIONAL_NAME>
(1R,9R,10S,11R,12R,19R)-11-acetoxy-4-[(13S,17S)-13-carbomethoxy-17-ethyl-17-hydroxy-1,11-diazatetracyclo[13.3.1.04,12.05,10]nonadeca-4(12),5,7,9-tetraen-13-yl]-12-ethyl-10-hydroxy-5-methoxy-8-methyl-8,16-diazapentacyclo[10.6.1.01,9.02,7.016,19]nonadeca-2,4,6,13-tetraene-10-carboxylic acid methyl ester

> <PUBCHEM_IUPAC_INCHI>
InChI=1S/C46H58N4O9/c1-8-42(54)23-28-24-45(40(52)57-6,36-30(15-19-49(25-28)26-42)29-13-10-11-14-33(29)47-36)32-21-31-34(22-35(32)56-5)48(4)38-44(31)17-20-50-18-12-16-43(9-2,37(44)50)39(59-27(3)51)46(38,55)41(53)58-7/h10-14,16,21-22,28,37-39,47,54-55H,8-9,15,17-20,23-26H2,1-7H3/t28?,37-,38+,39+,42-,43+,44+,45-,46-/m0/s1

> <PUBCHEM_IUPAC_INCHIKEY>
JXLYSJRDGCGARV-CUGARIAGSA-N

> <PUBCHEM_XLOGP3>
3.7

> <PUBCHEM_EXACT_MASS>
810.420379

> <PUBCHEM_MOLECULAR_FORMULA>
C46H58N4O9

> <PUBCHEM_MOLECULAR_WEIGHT>
811

> <PUBCHEM_OPENEYE_CAN_SMILES>
CCC1(CC2CC(C3=C(CCN(C2)C1)C4=CC=CC=C4N3)(C5=C(C=C6C(=C5)C78CCN9C7C(C=CC9)(C(C(C8N6C)(C(=O)OC)O)OC(=O)C)CC)OC)C(=O)OC)O

> <PUBCHEM_OPENEYE_ISO_SMILES>
CC[C@@]1(CC2C[C@@](C3=C(CCN(C2)C1)C4=CC=CC=C4N3)(C5=C(C=C6C(=C5)[C@]78CCN9[C@H]7[C@@](C=CC9)([C@H]([C@@]([C@@H]8N6C)(C(=O)OC)O)OC(=O)C)CC)OC)C(=O)OC)O

> <PUBCHEM_CACTVS_TPSA>
154

> <PUBCHEM_MONOISOTOPIC_WEIGHT>
810.420379

> <PUBCHEM_TOTAL_CHARGE>
0

> <PUBCHEM_HEAVY_ATOM_COUNT>
59

> <PUBCHEM_ATOM_DEF_STEREO_COUNT>
8

> <PUBCHEM_ATOM_UDEF_STEREO_COUNT>
1

> <PUBCHEM_BOND_DEF_STEREO_COUNT>
0

> <PUBCHEM_BOND_UDEF_STEREO_COUNT>
0

> <PUBCHEM_ISOTOPIC_ATOM_COUNT>
0

> <PUBCHEM_COMPONENT_COUNT>
1

> <PUBCHEM_CACTVS_TAUTO_COUNT>
-1

> <PUBCHEM_COORDINATE_TYPE>
1
5
255

> <PUBCHEM_BONDANNOTATIONS>
20  1  6
13  38  8
13  52  8
14  19  6
15  60  5
16  61  6
17  23  5
18  2  6
21  24  8
21  29  8
24  31  8
29  33  8
31  34  8
33  34  8
35  40  5
38  45  8
39  43  3
45  51  8
51  52  8
51  54  8
52  55  8
54  58  8
55  59  8
58  59  8
46  9  5

$$$$
6253
  -OEChem-02182015172D

 30 31  0     1  0  0  0  0  0999 V2000
    5.0298   -1.2857    0.0000 O   0  0  0  0  0  0  0  0  0  0  0  0
    2.4608   -0.9766    0.0000 O   0  0  0  0  0  0  0  0  0  0  0  0
    3.1330   -3.0457    0.0000 O   0  0  0  0  0  0  0  0  0  0  0  0
    6.3031   -2.9412    0.0000 O   0  0  0  0  0  0  0  0  0  0  0  0
    5.9529    0.3021    0.0000 O   0  0  0  0  0  0  0  0  0  0  0  0
    4.2208    0.3021    0.0000 N   0  0  0  0  0  0  0  0  0  0  0  0
    5.0868    1.8021    0.0000 N   0  0  0  0  0  0  0  0  0  0  0  0
    4.2208    3.3021    0.0000 N   0  0  0  0  0  0  0  0  0  0  0  0
    3.4118   -1.2857    0.0000 C   0  0  1  0  0  0  0  0  0  0  0  0
    3.7208   -2.2367    0.0000 C   0  0  1  0  0  0  0  0  0  0  0  0
    4.2208   -0.6979    0.0000 C   0  0  1  0  0  0  0  0  0  0  0  0
    4.7208   -2.2367    0.0000 C   0  0  1  0  0  0  0  0  0  0  0  0
    5.3086   -3.0457    0.0000 C   0  0  0  0  0  0  0  0  0  0  0  0
    3.3548    0.8021    0.0000 C   0  0  0  0  0  0  0  0  0  0  0  0
    5.0868    0.8021    0.0000 C   0  0  0  0  0  0  0  0  0  0  0  0
    3.3548    1.8021    0.0000 C   0  0  0  0  0  0  0  0  0  0  0  0
    4.2208    2.3021    0.0000 C   0  0  0  0  0  0  0  0  0  0  0  0
    2.9734   -1.7241    0.0000 H   0  0  0  0  0  0  0  0  0  0  0  0
    3.1085   -2.1397    0.0000 H   0  0  0  0  0  0  0  0  0  0  0  0
    3.6684   -0.4164    0.0000 H   0  0  0  0  0  0  0  0  0  0  0  0
    5.3332   -2.1397    0.0000 H   0  0  0  0  0  0  0  0  0  0  0  0
    4.7514   -3.3175    0.0000 H   0  0  0  0  0  0  0  0  0  0  0  0
    5.4795   -3.6417    0.0000 H   0  0  0  0  0  0  0  0  0  0  0  0
    2.0000   -1.3915    0.0000 H   0  0  0  0  0  0  0  0  0  0  0  0
    3.3852   -3.6121    0.0000 H   0  0  0  0  0  0  0  0  0  0  0  0
    2.8179    0.4921    0.0000 H   0  0  0  0  0  0  0  0  0  0  0  0
    6.6676   -3.4428    0.0000 H   0  0  0  0  0  0  0  0  0  0  0  0
    2.8179    2.1121    0.0000 H   0  0  0  0  0  0  0  0  0  0  0  0
    3.6839    3.6121    0.0000 H   0  0  0  0  0  0  0  0  0  0  0  0
    4.7578    3.6121    0.0000 H   0  0  0  0  0  0  0  0  0  0  0  0
  1 11  1  0  0  0  0
  1 12  1  0  0  0  0
  9  2  1  6  0  0  0
  2 24  1  0  0  0  0
 10  3  1  1  0  0  0
  3 25  1  0  0  0  0
  4 13  1  0  0  0  0
  4 27  1  0  0  0  0
  5 15  2  0  0  0  0
 11  6  1  6  0  0  0
  6 14  1  0  0  0  0
  6 15  1  0  0  0  0
  7 15  1  0  0  0  0
  7 17  2  0  0  0  0
  8 17  1  0  0  0  0
  8 29  1  0  0  0  0
  8 30  1  0  0  0  0
  9 10  1  0  0  0  0
  9 11  1  0  0  0  0
  9 18  1  0  0  0  0
 10 12  1  0  0  0  0
 10 19  1  0  0  0  0
 11 20  1  0  0  0  0
 12 13  1  6  0  0  0
 12 21  1  0  0  0  0
 13 22  1  0  0  0  0
 13 23  1  0  0  0  0
 14 16  2  0  0  0  0
 14 26  1  0  0  0  0
 16 17  1  0  0  0  0
 16 28  1  0  0  0  0
M  END
> <PUBCHEM_COMPOUND_CID>
6253

> <PUBCHEM_COMPOUND_CANONICALIZED>
1

> <PUBCHEM_CACTVS_COMPLEXITY>
383

> <PUBCHEM_CACTVS_HBOND_ACCEPTOR>
5

> <PUBCHEM_CACTVS_HBOND_DONOR>
4

> <PUBCHEM_CACTVS_ROTATABLE_BOND>
2

> <PUBCHEM_CACTVS_SUBSKEYS>
AAADccBzOAAAAAAAAAAAAAAAAAAAASAAAAAgAAAAAAAAAAAAAAAAHgAQCAAACBThgAYBAANABgCoACJmdACAAAEAAgAIAAAYABCDEAIAgAAOQAAHFgITAADwMAIAAAAAAAAAAAAAAAAAAAAAAAAAAAAAAA==

> <PUBCHEM_IUPAC_OPENEYE_NAME>
4-amino-1-[(2R,3S,4S,5R)-3,4-dihydroxy-5-(hydroxymethyl)tetrahydrofuran-2-yl]pyrimidin-2-one

> <PUBCHEM_IUPAC_CAS_NAME>
4-amino-1-[(2R,3S,4S,5R)-3,4-dihydroxy-5-(hydroxymethyl)-2-oxolanyl]-2-pyrimidinone

> <PUBCHEM_IUPAC_NAME_MARKUP>
4-amino-1-[(2<I>R</I>,3<I>S</I>,4<I>S</I>,5<I>R</I>)-3,4-dihydroxy-5-(hydroxymethyl)oxolan-2-yl]pyrimidin-2-one

> <PUBCHEM_IUPAC_NAME>
4-amino-1-[(2R,3S,4S,5R)-3,4-dihydroxy-5-(hydroxymethyl)oxolan-2-yl]pyrimidin-2-one

> <PUBCHEM_IUPAC_SYSTEMATIC_NAME>
4-azanyl-1-[(2R,3S,4S,5R)-5-(hydroxymethyl)-3,4-bis(oxidanyl)oxolan-2-yl]pyrimidin-2-one

> <PUBCHEM_IUPAC_TRADITIONAL_NAME>
4-amino-1-[(2R,3S,4S,5R)-3,4-dihydroxy-5-methylol-tetrahydrofuran-2-yl]pyrimidin-2-one

> <PUBCHEM_IUPAC_INCHI>
InChI=1S/C9H13N3O5/c10-5-1-2-12(9(16)11-5)8-7(15)6(14)4(3-13)17-8/h1-2,4,6-8,13-15H,3H2,(H2,10,11,16)/t4-,6-,7+,8-/m1/s1

> <PUBCHEM_IUPAC_INCHIKEY>
UHDGCWIWMRVCDJ-CCXZUQQUSA-N

> <PUBCHEM_XLOGP3>
-2.1

> <PUBCHEM_EXACT_MASS>
243.085521

> <PUBCHEM_MOLECULAR_FORMULA>
C9H13N3O5

> <PUBCHEM_MOLECULAR_WEIGHT>
243.22

> <PUBCHEM_OPENEYE_CAN_SMILES>
C1=CN(C(=O)N=C1N)C2C(C(C(O2)CO)O)O

> <PUBCHEM_OPENEYE_ISO_SMILES>
C1=CN(C(=O)N=C1N)[C@H]2[C@H]([C@@H]([C@H](O2)CO)O)O

> <PUBCHEM_CACTVS_TPSA>
129

> <PUBCHEM_MONOISOTOPIC_WEIGHT>
243.085521

> <PUBCHEM_TOTAL_CHARGE>
0

> <PUBCHEM_HEAVY_ATOM_COUNT>
17

> <PUBCHEM_ATOM_DEF_STEREO_COUNT>
4

> <PUBCHEM_ATOM_UDEF_STEREO_COUNT>
0

> <PUBCHEM_BOND_DEF_STEREO_COUNT>
0

> <PUBCHEM_BOND_UDEF_STEREO_COUNT>
0

> <PUBCHEM_ISOTOPIC_ATOM_COUNT>
0

> <PUBCHEM_COMPONENT_COUNT>
1

> <PUBCHEM_CACTVS_TAUTO_COUNT>
-1

> <PUBCHEM_COORDINATE_TYPE>
1
5
255

> <PUBCHEM_BONDANNOTATIONS>
12  13  6
14  16  8
16  17  8
9  2  6
10  3  5
11  6  6
6  14  8
6  15  8
7  15  8
7  17  8

$$$$
16720766
  -OEChem-02182015172D

 56 60  0     1  0  0  0  0  0999 V2000
    6.6223   -4.9983    0.0000 S   0  0  0  0  0  0  0  0  0  0  0  0
    8.3272   -2.6288    0.0000 O   0  0  0  0  0  0  0  0  0  0  0  0
    6.9296   -4.0467    0.0000 O   0  0  0  0  0  0  0  0  0  0  0  0
    7.5739   -5.3057    0.0000 O   0  0  0  0  0  0  0  0  0  0  0  0
    5.6707   -4.6909    0.0000 O   0  0  0  0  0  0  0  0  0  0  0  0
    6.2531    0.2154    0.0000 N   0  0  0  0  0  0  0  0  0  0  0  0
    4.4409    3.0202    0.0000 N   0  0  0  0  0  0  0  0  0  0  0  0
    4.4409    0.0202    0.0000 N   0  0  0  0  0  0  0  0  0  0  0  0
    3.5749    1.5201    0.0000 N   0  0  0  0  0  0  0  0  0  0  0  0
    6.3149   -5.9499    0.0000 N   0  0  0  0  0  0  0  0  0  0  0  0
    6.5638   -0.7351    0.0000 C   0  0  2  0  0  0  0  0  0  0  0  0
    6.5666   -2.3531    0.0000 C   0  0  2  0  0  0  0  0  0  0  0  0
    5.9774   -1.5451    0.0000 C   0  0  0  0  0  0  0  0  0  0  0  0
    7.5171   -2.0425    0.0000 C   0  0  2  0  0  0  0  0  0  0  0  0
    7.5154   -1.0425    0.0000 C   0  0  0  0  0  0  0  0  0  0  0  0
    6.2592   -3.3047    0.0000 C   0  0  0  0  0  0  0  0  0  0  0  0
    5.3069    0.5202    0.0000 C   0  0  0  0  0  0  0  0  0  0  0  0
    6.8368    1.0201    0.0000 C   0  0  0  0  0  0  0  0  0  0  0  0
    5.3069    1.5201    0.0000 C   0  0  0  0  0  0  0  0  0  0  0  0
    3.5749    3.5202    0.0000 C   0  0  1  0  0  0  0  0  0  0  0  0
    6.2531    1.8249    0.0000 C   0  0  0  0  0  0  0  0  0  0  0  0
    2.6671    3.1150    0.0000 C   0  0  0  0  0  0  0  0  0  0  0  0
    4.4409    2.0202    0.0000 C   0  0  0  0  0  0  0  0  0  0  0  0
    3.4718    4.5089    0.0000 C   0  0  0  0  0  0  0  0  0  0  0  0
    2.0000    3.8521    0.0000 C   0  0  0  0  0  0  0  0  0  0  0  0
    2.4933    4.7151    0.0000 C   0  0  0  0  0  0  0  0  0  0  0  0
    4.1397    5.2532    0.0000 C   0  0  0  0  0  0  0  0  0  0  0  0
    3.5749    0.5202    0.0000 C   0  0  0  0  0  0  0  0  0  0  0  0
    2.1827    5.6656    0.0000 C   0  0  0  0  0  0  0  0  0  0  0  0
    3.8290    6.2037    0.0000 C   0  0  0  0  0  0  0  0  0  0  0  0
    2.8505    6.4099    0.0000 C   0  0  0  0  0  0  0  0  0  0  0  0
    5.9513   -0.6392    0.0000 H   0  0  0  0  0  0  0  0  0  0  0  0
    5.9544   -2.4512    0.0000 H   0  0  0  0  0  0  0  0  0  0  0  0
    5.5160   -1.1311    0.0000 H   0  0  0  0  0  0  0  0  0  0  0  0
    5.5174   -1.9608    0.0000 H   0  0  0  0  0  0  0  0  0  0  0  0
    7.4212   -2.6550    0.0000 H   0  0  0  0  0  0  0  0  0  0  0  0
    8.1321   -1.1062    0.0000 H   0  0  0  0  0  0  0  0  0  0  0  0
    7.6432   -0.4358    0.0000 H   0  0  0  0  0  0  0  0  0  0  0  0
    5.7113   -3.0146    0.0000 H   0  0  0  0  0  0  0  0  0  0  0  0
    5.8784   -3.7940    0.0000 H   0  0  0  0  0  0  0  0  0  0  0  0
    7.4568    1.0201    0.0000 H   0  0  0  0  0  0  0  0  0  0  0  0
    8.8931   -2.3757    0.0000 H   0  0  0  0  0  0  0  0  0  0  0  0
    3.5427    2.9010    0.0000 H   0  0  0  0  0  0  0  0  0  0  0  0
    6.4458    2.4142    0.0000 H   0  0  0  0  0  0  0  0  0  0  0  0
    2.1662    2.7496    0.0000 H   0  0  0  0  0  0  0  0  0  0  0  0
    2.9779    2.5786    0.0000 H   0  0  0  0  0  0  0  0  0  0  0  0
    1.4970    4.2146    0.0000 H   0  0  0  0  0  0  0  0  0  0  0  0
    1.5866    3.3900    0.0000 H   0  0  0  0  0  0  0  0  0  0  0  0
    4.9778    3.3302    0.0000 H   0  0  0  0  0  0  0  0  0  0  0  0
    4.7463    5.1253    0.0000 H   0  0  0  0  0  0  0  0  0  0  0  0
    3.0379    0.2102    0.0000 H   0  0  0  0  0  0  0  0  0  0  0  0
    1.5760    5.7935    0.0000 H   0  0  0  0  0  0  0  0  0  0  0  0
    4.2431    6.6652    0.0000 H   0  0  0  0  0  0  0  0  0  0  0  0
    2.6579    6.9992    0.0000 H   0  0  0  0  0  0  0  0  0  0  0  0
    6.7306   -6.4099    0.0000 H   0  0  0  0  0  0  0  0  0  0  0  0
    5.7087   -6.0798    0.0000 H   0  0  0  0  0  0  0  0  0  0  0  0
  1  3  1  0  0  0  0
  1  4  2  0  0  0  0
  1  5  2  0  0  0  0
  1 10  1  0  0  0  0
 14  2  1  6  0  0  0
  2 42  1  0  0  0  0
  3 16  1  0  0  0  0
 11  6  1  1  0  0  0
  6 17  1  0  0  0  0
  6 18  1  0  0  0  0
 20  7  1  1  0  0  0
  7 23  1  0  0  0  0
  7 49  1  0  0  0  0
  8 17  2  0  0  0  0
  8 28  1  0  0  0  0
  9 23  1  0  0  0  0
  9 28  2  0  0  0  0
 10 55  1  0  0  0  0
 10 56  1  0  0  0  0
 11 13  1  0  0  0  0
 11 15  1  0  0  0  0
 11 32  1  0  0  0  0
 12 13  1  0  0  0  0
 12 14  1  0  0  0  0
 12 16  1  6  0  0  0
 12 33  1  0  0  0  0
 13 34  1  0  0  0  0
 13 35  1  0  0  0  0
 14 15  1  0  0  0  0
 14 36  1  0  0  0  0
 15 37  1  0  0  0  0
 15 38  1  0  0  0  0
 16 39  1  0  0  0  0
 16 40  1  0  0  0  0
 17 19  1  0  0  0  0
 18 21  2  0  0  0  0
 18 41  1  0  0  0  0
 19 21  1  0  0  0  0
 19 23  2  0  0  0  0
 20 22  1  0  0  0  0
 20 24  1  0  0  0  0
 20 43  1  0  0  0  0
 21 44  1  0  0  0  0
 22 25  1  0  0  0  0
 22 45  1  0  0  0  0
 22 46  1  0  0  0  0
 24 26  1  0  0  0  0
 24 27  2  0  0  0  0
 25 26  1  0  0  0  0
 25 47  1  0  0  0  0
 25 48  1  0  0  0  0
 26 29  2  0  0  0  0
 27 30  1  0  0  0  0
 27 50  1  0  0  0  0
 28 51  1  0  0  0  0
 29 31  1  0  0  0  0
 29 52  1  0  0  0  0
 30 31  2  0  0  0  0
 30 53  1  0  0  0  0
 31 54  1  0  0  0  0
M  END
> <PUBCHEM_COMPOUND_CID>
16720766

> <PUBCHEM_COMPOUND_CANONICALIZED>
1

> <PUBCHEM_CACTVS_COMPLEXITY>
734

> <PUBCHEM_CACTVS_HBOND_ACCEPTOR>
8

> <PUBCHEM_CACTVS_HBOND_DONOR>
3

> <PUBCHEM_CACTVS_ROTATABLE_BOND>
6

> <PUBCHEM_CACTVS_SUBSKEYS>
AAADceB7uABAAAAAAAAAAAAAAAAAAeMEAAA8QAAAAAAAAHgB/AAAHgAQSAAADTzhmwY9sN/MEgCgAjJnZDCCgCkxAqAJ2KA4ZJiIOOLA2dGEZAhvkALIyCew0IMOgAAAAAAQAAAAAAAAACAAACEADQAAAA==

> <PUBCHEM_IUPAC_OPENEYE_NAME>
[(1S,2S,4R)-2-hydroxy-4-[4-[[(1S)-indan-1-yl]amino]pyrrolo[2,3-d]pyrimidin-7-yl]cyclopentyl]methyl sulfamate

> <PUBCHEM_IUPAC_CAS_NAME>
sulfamic acid [(1S,2S,4R)-4-[4-[[(1S)-2,3-dihydro-1H-inden-1-yl]amino]-7-pyrrolo[2,3-d]pyrimidinyl]-2-hydroxycyclopentyl]methyl ester

> <PUBCHEM_IUPAC_NAME_MARKUP>
[(1<I>S</I>,2<I>S</I>,4<I>R</I>)-4-[4-[[(1<I>S</I>)-2,3-dihydro-1<I>H</I>-inden-1-yl]amino]pyrrolo[2,3-d]pyrimidin-7-yl]-2-hydroxycyclopentyl]methyl sulfamate

> <PUBCHEM_IUPAC_NAME>
[(1S,2S,4R)-4-[4-[[(1S)-2,3-dihydro-1H-inden-1-yl]amino]pyrrolo[2,3-d]pyrimidin-7-yl]-2-hydroxycyclopentyl]methyl sulfamate

> <PUBCHEM_IUPAC_SYSTEMATIC_NAME>
[(1S,2S,4R)-4-[4-[[(1S)-2,3-dihydro-1H-inden-1-yl]amino]pyrrolo[2,3-d]pyrimidin-7-yl]-2-oxidanyl-cyclopentyl]methyl sulfamate

> <PUBCHEM_IUPAC_TRADITIONAL_NAME>
sulfamic acid [(1S,2S,4R)-2-hydroxy-4-[4-[[(1S)-indan-1-yl]amino]pyrrolo[2,3-d]pyrimidin-7-yl]cyclopentyl]methyl ester

> <PUBCHEM_IUPAC_INCHI>
InChI=1S/C21H25N5O4S/c22-31(28,29)30-11-14-9-15(10-19(14)27)26-8-7-17-20(23-12-24-21(17)26)25-18-6-5-13-3-1-2-4-16(13)18/h1-4,7-8,12,14-15,18-19,27H,5-6,9-11H2,(H2,22,28,29)(H,23,24,25)/t14-,15+,18-,19-/m0/s1

> <PUBCHEM_IUPAC_INCHIKEY>
MPUQHZXIXSTTDU-QXGSTGNESA-N

> <PUBCHEM_XLOGP3_AA>
1.7

> <PUBCHEM_EXACT_MASS>
443.162725

> <PUBCHEM_MOLECULAR_FORMULA>
C21H25N5O4S

> <PUBCHEM_MOLECULAR_WEIGHT>
443.5

> <PUBCHEM_OPENEYE_CAN_SMILES>
C1CC2=CC=CC=C2C1NC3=C4C=CN(C4=NC=N3)C5CC(C(C5)O)COS(=O)(=O)N

> <PUBCHEM_OPENEYE_ISO_SMILES>
C1CC2=CC=CC=C2[C@H]1NC3=C4C=CN(C4=NC=N3)[C@@H]5C[C@H]([C@H](C5)O)COS(=O)(=O)N

> <PUBCHEM_CACTVS_TPSA>
141

> <PUBCHEM_MONOISOTOPIC_WEIGHT>
443.162725

> <PUBCHEM_TOTAL_CHARGE>
0

> <PUBCHEM_HEAVY_ATOM_COUNT>
31

> <PUBCHEM_ATOM_DEF_STEREO_COUNT>
4

> <PUBCHEM_ATOM_UDEF_STEREO_COUNT>
0

> <PUBCHEM_BOND_DEF_STEREO_COUNT>
0

> <PUBCHEM_BOND_UDEF_STEREO_COUNT>
0

> <PUBCHEM_ISOTOPIC_ATOM_COUNT>
0

> <PUBCHEM_COMPONENT_COUNT>
1

> <PUBCHEM_CACTVS_TAUTO_COUNT>
-1

> <PUBCHEM_COORDINATE_TYPE>
1
5
255

> <PUBCHEM_BONDANNOTATIONS>
12  16  6
17  19  8
18  21  8
19  21  8
19  23  8
14  2  6
24  26  8
24  27  8
26  29  8
27  30  8
29  31  8
30  31  8
11  6  5
6  17  8
6  18  8
20  7  5
8  17  8
8  28  8
9  23  8
9  28  8

$$$$
70676303
  -OEChem-02182015172D

 51 55  0     0  0  0  0  0  0999 V2000
    8.6793   -0.3647    0.0000 S   0  0  0  0  0  0  0  0  0  0  0  0
   11.2629   -0.5600    0.0000 O   0  0  0  0  0  0  0  0  0  0  0  0
   10.2629    1.4400    0.0000 O   0  0  0  0  0  0  0  0  0  0  0  0
    6.8671   -3.5600    0.0000 O   0  0  0  0  0  0  0  0  0  0  0  0
    6.8671   -1.5600    0.0000 N   0  0  0  0  0  0  0  0  0  0  0  0
    6.8671    1.4400    0.0000 N   0  0  0  0  0  0  0  0  0  0  0  0
    6.0010   -0.0600    0.0000 N   0  0  0  0  0  0  0  0  0  0  0  0
    4.2690    2.9400    0.0000 N   0  0  0  0  0  0  0  0  0  0  0  0
    3.4030    1.4400    0.0000 N   0  0  0  0  0  0  0  0  0  0  0  0
    2.5369    2.9400    0.0000 N   0  0  0  0  0  0  0  0  0  0  0  0
   10.2629    0.4400    0.0000 C   0  0  0  0  0  0  0  0  0  0  0  0
   11.2629    0.4400    0.0000 C   0  0  0  0  0  0  0  0  0  0  0  0
   10.2629   -0.5600    0.0000 C   0  0  0  0  0  0  0  0  0  0  0  0
    9.2629    0.4400    0.0000 C   0  0  0  0  0  0  0  0  0  0  0  0
    8.6793    1.2447    0.0000 C   0  0  0  0  0  0  0  0  0  0  0  0
    7.7331   -0.0600    0.0000 C   0  0  0  0  0  0  0  0  0  0  0  0
    7.7331    0.9400    0.0000 C   0  0  0  0  0  0  0  0  0  0  0  0
    6.8671   -0.5600    0.0000 C   0  0  0  0  0  0  0  0  0  0  0  0
    7.7331   -2.0600    0.0000 C   0  0  0  0  0  0  0  0  0  0  0  0
    6.0010   -2.0600    0.0000 C   0  0  0  0  0  0  0  0  0  0  0  0
    8.9900    2.1952    0.0000 C   0  0  0  0  0  0  0  0  0  0  0  0
    7.7331   -3.0600    0.0000 C   0  0  0  0  0  0  0  0  0  0  0  0
    6.0010   -3.0600    0.0000 C   0  0  0  0  0  0  0  0  0  0  0  0
   11.1289    1.9400    0.0000 C   0  0  0  0  0  0  0  0  0  0  0  0
    6.0010    0.9400    0.0000 C   0  0  0  0  0  0  0  0  0  0  0  0
    5.1350    1.4400    0.0000 C   0  0  0  0  0  0  0  0  0  0  0  0
    5.1350    2.4400    0.0000 C   0  0  0  0  0  0  0  0  0  0  0  0
    4.2690    0.9400    0.0000 C   0  0  0  0  0  0  0  0  0  0  0  0
    3.4030    2.4400    0.0000 C   0  0  0  0  0  0  0  0  0  0  0  0
   11.8829    0.4400    0.0000 H   0  0  0  0  0  0  0  0  0  0  0  0
   11.2629    1.0600    0.0000 H   0  0  0  0  0  0  0  0  0  0  0  0
    9.6429   -0.5600    0.0000 H   0  0  0  0  0  0  0  0  0  0  0  0
   10.2629   -1.1800    0.0000 H   0  0  0  0  0  0  0  0  0  0  0  0
    8.3437   -2.1677    0.0000 H   0  0  0  0  0  0  0  0  0  0  0  0
    7.9451   -1.4774    0.0000 H   0  0  0  0  0  0  0  0  0  0  0  0
    5.7890   -1.4774    0.0000 H   0  0  0  0  0  0  0  0  0  0  0  0
    5.3905   -2.1677    0.0000 H   0  0  0  0  0  0  0  0  0  0  0  0
    9.5793    2.0026    0.0000 H   0  0  0  0  0  0  0  0  0  0  0  0
    9.1826    2.7846    0.0000 H   0  0  0  0  0  0  0  0  0  0  0  0
    8.4006    2.3879    0.0000 H   0  0  0  0  0  0  0  0  0  0  0  0
    7.9451   -3.6426    0.0000 H   0  0  0  0  0  0  0  0  0  0  0  0
    8.3437   -2.9523    0.0000 H   0  0  0  0  0  0  0  0  0  0  0  0
    5.3905   -2.9523    0.0000 H   0  0  0  0  0  0  0  0  0  0  0  0
    5.7890   -3.6426    0.0000 H   0  0  0  0  0  0  0  0  0  0  0  0
   11.4389    1.4031    0.0000 H   0  0  0  0  0  0  0  0  0  0  0  0
   11.6659    2.2500    0.0000 H   0  0  0  0  0  0  0  0  0  0  0  0
   10.8189    2.4769    0.0000 H   0  0  0  0  0  0  0  0  0  0  0  0
    5.6720    2.7500    0.0000 H   0  0  0  0  0  0  0  0  0  0  0  0
    4.2690    0.3200    0.0000 H   0  0  0  0  0  0  0  0  0  0  0  0
    2.5369    3.5600    0.0000 H   0  0  0  0  0  0  0  0  0  0  0  0
    2.0000    2.6300    0.0000 H   0  0  0  0  0  0  0  0  0  0  0  0
  1 14  1  0  0  0  0
  1 16  1  0  0  0  0
  2 12  1  0  0  0  0
  2 13  1  0  0  0  0
  3 11  1  0  0  0  0
  3 24  1  0  0  0  0
  4 22  1  0  0  0  0
  4 23  1  0  0  0  0
  5 18  1  0  0  0  0
  5 19  1  0  0  0  0
  5 20  1  0  0  0  0
  6 17  1  0  0  0  0
  6 25  2  0  0  0  0
  7 18  2  0  0  0  0
  7 25  1  0  0  0  0
  8 27  2  0  0  0  0
  8 29  1  0  0  0  0
  9 28  1  0  0  0  0
  9 29  2  0  0  0  0
 10 29  1  0  0  0  0
 10 50  1  0  0  0  0
 10 51  1  0  0  0  0
 11 12  1  0  0  0  0
 11 13  1  0  0  0  0
 11 14  1  0  0  0  0
 12 30  1  0  0  0  0
 12 31  1  0  0  0  0
 13 32  1  0  0  0  0
 13 33  1  0  0  0  0
 14 15  2  0  0  0  0
 15 17  1  0  0  0  0
 15 21  1  0  0  0  0
 16 17  2  0  0  0  0
 16 18  1  0  0  0  0
 19 22  1  0  0  0  0
 19 34  1  0  0  0  0
 19 35  1  0  0  0  0
 20 23  1  0  0  0  0
 20 36  1  0  0  0  0
 20 37  1  0  0  0  0
 21 38  1  0  0  0  0
 21 39  1  0  0  0  0
 21 40  1  0  0  0  0
 22 41  1  0  0  0  0
 22 42  1  0  0  0  0
 23 43  1  0  0  0  0
 23 44  1  0  0  0  0
 24 45  1  0  0  0  0
 24 46  1  0  0  0  0
 24 47  1  0  0  0  0
 25 26  1  0  0  0  0
 26 27  1  0  0  0  0
 26 28  2  0  0  0  0
 27 48  1  0  0  0  0
 28 49  1  0  0  0  0
M  END
> <PUBCHEM_COMPOUND_CID>
70676303

> <PUBCHEM_COMPOUND_CANONICALIZED>
1

> <PUBCHEM_CACTVS_COMPLEXITY>
570

> <PUBCHEM_CACTVS_HBOND_ACCEPTOR>
10

> <PUBCHEM_CACTVS_HBOND_DONOR>
1

> <PUBCHEM_CACTVS_ROTATABLE_BOND>
4

> <PUBCHEM_CACTVS_SUBSKEYS>
AAADceB7sABAAAAAAAAAAAAAAABIASAAAAAsWLAAAAAAAFgB/gAAHgQQAAAADEzh3wYv8bdIFAikAxZnZACDoKkxCLAB2DQoTJiLLqLg+dmHNAxswAP66Cew0GMOAAAAAAAAAAAAAAAAAAAAAAAAAAAAAA==

> <PUBCHEM_IUPAC_OPENEYE_NAME>
5-[6-(3-methoxyoxetan-3-yl)-7-methyl-4-morpholino-thieno[3,2-d]pyrimidin-2-yl]pyrimidin-2-amine

> <PUBCHEM_IUPAC_CAS_NAME>
5-[6-(3-methoxy-3-oxetanyl)-7-methyl-4-(4-morpholinyl)-2-thieno[3,2-d]pyrimidinyl]-2-pyrimidinamine

> <PUBCHEM_IUPAC_NAME_MARKUP>
5-[6-(3-methoxyoxetan-3-yl)-7-methyl-4-morpholin-4-ylthieno[3,2-d]pyrimidin-2-yl]pyrimidin-2-amine

> <PUBCHEM_IUPAC_NAME>
5-[6-(3-methoxyoxetan-3-yl)-7-methyl-4-morpholin-4-ylthieno[3,2-d]pyrimidin-2-yl]pyrimidin-2-amine

> <PUBCHEM_IUPAC_SYSTEMATIC_NAME>
5-[6-(3-methoxyoxetan-3-yl)-7-methyl-4-morpholin-4-yl-thieno[3,2-d]pyrimidin-2-yl]pyrimidin-2-amine

> <PUBCHEM_IUPAC_TRADITIONAL_NAME>
[5-[6-(3-methoxyoxetan-3-yl)-7-methyl-4-morpholino-thieno[3,2-d]pyrimidin-2-yl]pyrimidin-2-yl]amine

> <PUBCHEM_IUPAC_INCHI>
InChI=1S/C19H22N6O3S/c1-11-13-14(29-15(11)19(26-2)9-28-10-19)17(25-3-5-27-6-4-25)24-16(23-13)12-7-21-18(20)22-8-12/h7-8H,3-6,9-10H2,1-2H3,(H2,20,21,22)

> <PUBCHEM_IUPAC_INCHIKEY>
XOZLHJMDLKDZAL-UHFFFAOYSA-N

> <PUBCHEM_XLOGP3_AA>
0.5

> <PUBCHEM_EXACT_MASS>
414.14741

> <PUBCHEM_MOLECULAR_FORMULA>
C19H22N6O3S

> <PUBCHEM_MOLECULAR_WEIGHT>
414.5

> <PUBCHEM_OPENEYE_CAN_SMILES>
CC1=C(SC2=C1N=C(N=C2N3CCOCC3)C4=CN=C(N=C4)N)C5(COC5)OC

> <PUBCHEM_OPENEYE_ISO_SMILES>
CC1=C(SC2=C1N=C(N=C2N3CCOCC3)C4=CN=C(N=C4)N)C5(COC5)OC

> <PUBCHEM_CACTVS_TPSA>
137

> <PUBCHEM_MONOISOTOPIC_WEIGHT>
414.14741

> <PUBCHEM_TOTAL_CHARGE>
0

> <PUBCHEM_HEAVY_ATOM_COUNT>
29

> <PUBCHEM_ATOM_DEF_STEREO_COUNT>
0

> <PUBCHEM_ATOM_UDEF_STEREO_COUNT>
0

> <PUBCHEM_BOND_DEF_STEREO_COUNT>
0

> <PUBCHEM_BOND_UDEF_STEREO_COUNT>
0

> <PUBCHEM_ISOTOPIC_ATOM_COUNT>
0

> <PUBCHEM_COMPONENT_COUNT>
1

> <PUBCHEM_CACTVS_TAUTO_COUNT>
-1

> <PUBCHEM_COORDINATE_TYPE>
1
5
255

> <PUBCHEM_BONDANNOTATIONS>
1  14  8
1  16  8
14  15  8
15  17  8
16  17  8
16  18  8
26  27  8
26  28  8
6  17  8
6  25  8
7  18  8
7  25  8
8  27  8
8  29  8
9  28  8
9  29  8

$$$$
68107965
  -OEChem-02182015172D

 48 51  0     0  0  0  0  0  0999 V2000
    9.7942   -4.5000    0.0000 F   0  0  0  0  0  0  0  0  0  0  0  0
    5.4641    0.0000    0.0000 O   0  0  0  0  0  0  0  0  0  0  0  0
    6.3301    1.5000    0.0000 O   0  0  0  0  0  0  0  0  0  0  0  0
    8.0622    1.5000    0.0000 N   0  0  0  0  0  0  0  0  0  0  0  0
   10.6603   -3.0000    0.0000 N   0  0  0  0  0  0  0  0  0  0  0  0
    8.9282    4.0000    0.0000 N   0  0  0  0  0  0  0  0  0  0  0  0
    7.1962    0.0000    0.0000 C   0  0  0  0  0  0  0  0  0  0  0  0
    8.0622   -1.5000    0.0000 C   0  0  0  0  0  0  0  0  0  0  0  0
    6.3301   -0.5000    0.0000 C   0  0  0  0  0  0  0  0  0  0  0  0
    8.0622   -0.5000    0.0000 C   0  0  0  0  0  0  0  0  0  0  0  0
    7.1962   -2.0000    0.0000 C   0  0  0  0  0  0  0  0  0  0  0  0
    6.3301   -1.5000    0.0000 C   0  0  0  0  0  0  0  0  0  0  0  0
    8.9282   -2.0000    0.0000 C   0  0  0  0  0  0  0  0  0  0  0  0
    4.5981   -0.5000    0.0000 C   0  0  0  0  0  0  0  0  0  0  0  0
    7.1962    1.0000    0.0000 C   0  0  0  0  0  0  0  0  0  0  0  0
    3.7320    0.0000    0.0000 C   0  0  0  0  0  0  0  0  0  0  0  0
    8.9282   -3.0000    0.0000 C   0  0  0  0  0  0  0  0  0  0  0  0
    9.7942   -1.5000    0.0000 C   0  0  0  0  0  0  0  0  0  0  0  0
    3.7320    1.0000    0.0000 C   0  0  0  0  0  0  0  0  0  0  0  0
    2.8660   -0.5000    0.0000 C   0  0  0  0  0  0  0  0  0  0  0  0
    8.0622    2.5000    0.0000 C   0  0  0  0  0  0  0  0  0  0  0  0
    9.7942   -3.5000    0.0000 C   0  0  0  0  0  0  0  0  0  0  0  0
   10.6603   -2.0000    0.0000 C   0  0  0  0  0  0  0  0  0  0  0  0
    2.8660    1.5000    0.0000 C   0  0  0  0  0  0  0  0  0  0  0  0
    2.0000    0.0000    0.0000 C   0  0  0  0  0  0  0  0  0  0  0  0
    2.0000    1.0000    0.0000 C   0  0  0  0  0  0  0  0  0  0  0  0
    7.1962    3.0000    0.0000 C   0  0  0  0  0  0  0  0  0  0  0  0
    8.9282    3.0000    0.0000 C   0  0  0  0  0  0  0  0  0  0  0  0
    7.1962    4.0000    0.0000 C   0  0  0  0  0  0  0  0  0  0  0  0
    8.0622    4.5000    0.0000 C   0  0  0  0  0  0  0  0  0  0  0  0
    8.5991   -0.1900    0.0000 H   0  0  0  0  0  0  0  0  0  0  0  0
    7.1962   -2.6200    0.0000 H   0  0  0  0  0  0  0  0  0  0  0  0
    5.7932   -1.8100    0.0000 H   0  0  0  0  0  0  0  0  0  0  0  0
    4.1996   -0.9749    0.0000 H   0  0  0  0  0  0  0  0  0  0  0  0
    4.9966   -0.9749    0.0000 H   0  0  0  0  0  0  0  0  0  0  0  0
    8.3913   -3.3100    0.0000 H   0  0  0  0  0  0  0  0  0  0  0  0
    9.7942   -0.8800    0.0000 H   0  0  0  0  0  0  0  0  0  0  0  0
    8.5991    1.1900    0.0000 H   0  0  0  0  0  0  0  0  0  0  0  0
    4.2690    1.3100    0.0000 H   0  0  0  0  0  0  0  0  0  0  0  0
    2.8660   -1.1200    0.0000 H   0  0  0  0  0  0  0  0  0  0  0  0
   11.1972   -1.6900    0.0000 H   0  0  0  0  0  0  0  0  0  0  0  0
    2.8660    2.1200    0.0000 H   0  0  0  0  0  0  0  0  0  0  0  0
    1.4631   -0.3100    0.0000 H   0  0  0  0  0  0  0  0  0  0  0  0
    1.4631    1.3100    0.0000 H   0  0  0  0  0  0  0  0  0  0  0  0
    6.6592    2.6900    0.0000 H   0  0  0  0  0  0  0  0  0  0  0  0
    9.4651    2.6900    0.0000 H   0  0  0  0  0  0  0  0  0  0  0  0
    6.6592    4.3100    0.0000 H   0  0  0  0  0  0  0  0  0  0  0  0
    8.0622    5.1200    0.0000 H   0  0  0  0  0  0  0  0  0  0  0  0
  1 22  1  0  0  0  0
  2  9  1  0  0  0  0
  2 14  1  0  0  0  0
  3 15  2  0  0  0  0
  4 15  1  0  0  0  0
  4 21  1  0  0  0  0
  4 38  1  0  0  0  0
  5 22  2  0  0  0  0
  5 23  1  0  0  0  0
  6 28  1  0  0  0  0
  6 30  2  0  0  0  0
  7  9  2  0  0  0  0
  7 10  1  0  0  0  0
  7 15  1  0  0  0  0
  8 10  2  0  0  0  0
  8 11  1  0  0  0  0
  8 13  1  0  0  0  0
  9 12  1  0  0  0  0
 10 31  1  0  0  0  0
 11 12  2  0  0  0  0
 11 32  1  0  0  0  0
 12 33  1  0  0  0  0
 13 17  2  0  0  0  0
 13 18  1  0  0  0  0
 14 16  1  0  0  0  0
 14 34  1  0  0  0  0
 14 35  1  0  0  0  0
 16 19  2  0  0  0  0
 16 20  1  0  0  0  0
 17 22  1  0  0  0  0
 17 36  1  0  0  0  0
 18 23  2  0  0  0  0
 18 37  1  0  0  0  0
 19 24  1  0  0  0  0
 19 39  1  0  0  0  0
 20 25  2  0  0  0  0
 20 40  1  0  0  0  0
 21 27  1  0  0  0  0
 21 28  2  0  0  0  0
 23 41  1  0  0  0  0
 24 26  2  0  0  0  0
 24 42  1  0  0  0  0
 25 26  1  0  0  0  0
 25 43  1  0  0  0  0
 26 44  1  0  0  0  0
 27 29  2  0  0  0  0
 27 45  1  0  0  0  0
 28 46  1  0  0  0  0
 29 30  1  0  0  0  0
 29 47  1  0  0  0  0
 30 48  1  0  0  0  0
M  END
> <PUBCHEM_COMPOUND_CID>
68107965

> <PUBCHEM_COMPOUND_CANONICALIZED>
1

> <PUBCHEM_CACTVS_COMPLEXITY>
543

> <PUBCHEM_CACTVS_HBOND_ACCEPTOR>
5

> <PUBCHEM_CACTVS_HBOND_DONOR>
1

> <PUBCHEM_CACTVS_ROTATABLE_BOND>
6

> <PUBCHEM_CACTVS_SUBSKEYS>
AAADceB7MQAAAAAAAAAAAAAAAAAAAAAAAAA8eIEAAAAAAAAB9AAAHwAQAAAADAzhmg48xpLIFACoAjV3VACCiCA1MiAI2CE+fNgMZvbEtZuWOWjm9BHI6YeYyPCOoAACAAAIAABAAAQAABAAAAAAAAAAAA==

> <PUBCHEM_IUPAC_OPENEYE_NAME>
2-benzyloxy-5-(2-fluoro-4-pyridyl)-N-(3-pyridyl)benzamide

> <PUBCHEM_IUPAC_CAS_NAME>
5-(2-fluoro-4-pyridinyl)-2-phenylmethoxy-N-(3-pyridinyl)benzamide

> <PUBCHEM_IUPAC_NAME_MARKUP>
5-(2-fluoropyridin-4-yl)-2-phenylmethoxy-<I>N</I>-pyridin-3-ylbenzamide

> <PUBCHEM_IUPAC_NAME>
5-(2-fluoropyridin-4-yl)-2-phenylmethoxy-N-pyridin-3-ylbenzamide

> <PUBCHEM_IUPAC_SYSTEMATIC_NAME>
5-(2-fluoranylpyridin-4-yl)-2-phenylmethoxy-N-pyridin-3-yl-benzamide

> <PUBCHEM_IUPAC_TRADITIONAL_NAME>
2-benzoxy-5-(2-fluoro-4-pyridyl)-N-(3-pyridyl)benzamide

> <PUBCHEM_IUPAC_INCHI>
InChI=1S/C24H18FN3O2/c25-23-14-19(10-12-27-23)18-8-9-22(30-16-17-5-2-1-3-6-17)21(13-18)24(29)28-20-7-4-11-26-15-20/h1-15H,16H2,(H,28,29)

> <PUBCHEM_IUPAC_INCHIKEY>
WCIGMFCFPXZRMQ-UHFFFAOYSA-N

> <PUBCHEM_XLOGP3_AA>
4.1

> <PUBCHEM_EXACT_MASS>
399.138305

> <PUBCHEM_MOLECULAR_FORMULA>
C24H18FN3O2

> <PUBCHEM_MOLECULAR_WEIGHT>
399.4

> <PUBCHEM_OPENEYE_CAN_SMILES>
C1=CC=C(C=C1)COC2=C(C=C(C=C2)C3=CC(=NC=C3)F)C(=O)NC4=CN=CC=C4

> <PUBCHEM_OPENEYE_ISO_SMILES>
C1=CC=C(C=C1)COC2=C(C=C(C=C2)C3=CC(=NC=C3)F)C(=O)NC4=CN=CC=C4

> <PUBCHEM_CACTVS_TPSA>
64.1

> <PUBCHEM_MONOISOTOPIC_WEIGHT>
399.138305

> <PUBCHEM_TOTAL_CHARGE>
0

> <PUBCHEM_HEAVY_ATOM_COUNT>
30

> <PUBCHEM_ATOM_DEF_STEREO_COUNT>
0

> <PUBCHEM_ATOM_UDEF_STEREO_COUNT>
0

> <PUBCHEM_BOND_DEF_STEREO_COUNT>
0

> <PUBCHEM_BOND_UDEF_STEREO_COUNT>
0

> <PUBCHEM_ISOTOPIC_ATOM_COUNT>
0

> <PUBCHEM_COMPONENT_COUNT>
1

> <PUBCHEM_CACTVS_TAUTO_COUNT>
-1

> <PUBCHEM_COORDINATE_TYPE>
1
5
255

> <PUBCHEM_BONDANNOTATIONS>
11  12  8
13  17  8
13  18  8
16  19  8
16  20  8
17  22  8
18  23  8
19  24  8
20  25  8
21  27  8
21  28  8
24  26  8
25  26  8
27  29  8
29  30  8
5  22  8
5  23  8
6  28  8
6  30  8
7  10  8
7  9  8
8  10  8
8  11  8
9  12  8

$$$$
68289010
  -OEChem-02182015172D

 41 45  0     1  0  0  0  0  0999 V2000
    8.1215   -0.6837    0.0000 N   0  0  0  0  0  0  0  0  0  0  0  0
   10.6998    1.6297    0.0000 N   0  0  0  0  0  0  0  0  0  0  0  0
    8.7051   -1.4885    0.0000 N   0  0  0  0  0  0  0  0  0  0  0  0
    6.3092   -0.4885    0.0000 N   0  0  0  0  0  0  0  0  0  0  0  0
    8.1215   -2.2932    0.0000 N   0  0  0  0  0  0  0  0  0  0  0  0
   12.2755    1.2906    0.0000 N   0  0  0  0  0  0  0  0  0  0  0  0
    6.3092   -2.4885    0.0000 N   0  0  0  0  0  0  0  0  0  0  0  0
    2.9945   -0.1521    0.0000 N   0  0  0  0  0  0  0  0  0  0  0  0
    3.4945    0.7140    0.0000 N   0  0  0  0  0  0  0  0  0  0  0  0
    8.4322    0.2668    0.0000 C   0  0  2  0  0  0  0  0  0  0  0  0
    9.4107    0.4730    0.0000 C   0  0  0  0  0  0  0  0  0  0  0  0
    7.7643    1.0111    0.0000 C   0  0  0  0  0  0  0  0  0  0  0  0
    7.1753   -0.9885    0.0000 C   0  0  0  0  0  0  0  0  0  0  0  0
    9.7213    1.4235    0.0000 C   0  0  0  0  0  0  0  0  0  0  0  0
   10.0785   -0.2713    0.0000 C   0  0  0  0  0  0  0  0  0  0  0  0
   11.3677    0.8854    0.0000 C   0  0  0  0  0  0  0  0  0  0  0  0
    7.1753   -1.9885    0.0000 C   0  0  0  0  0  0  0  0  0  0  0  0
   11.0570   -0.0651    0.0000 C   0  0  0  0  0  0  0  0  0  0  0  0
    5.4432   -0.9885    0.0000 C   0  0  0  0  0  0  0  0  0  0  0  0
   11.2006    2.4885    0.0000 C   0  0  0  0  0  0  0  0  0  0  0  0
    4.5772   -0.4885    0.0000 C   0  0  0  0  0  0  0  0  0  0  0  0
    5.4432   -1.9885    0.0000 C   0  0  0  0  0  0  0  0  0  0  0  0
   12.1724    2.2793    0.0000 C   0  0  0  0  0  0  0  0  0  0  0  0
    3.6636   -0.8952    0.0000 C   0  0  0  0  0  0  0  0  0  0  0  0
    4.4727    0.5060    0.0000 C   0  0  0  0  0  0  0  0  0  0  0  0
    2.0000   -0.2566    0.0000 C   0  0  0  0  0  0  0  0  0  0  0  0
    7.8255    0.1389    0.0000 H   0  0  0  0  0  0  0  0  0  0  0  0
    8.2258    1.4251    0.0000 H   0  0  0  0  0  0  0  0  0  0  0  0
    7.3502    1.4726    0.0000 H   0  0  0  0  0  0  0  0  0  0  0  0
    7.3028    0.5970    0.0000 H   0  0  0  0  0  0  0  0  0  0  0  0
    9.3073    1.8850    0.0000 H   0  0  0  0  0  0  0  0  0  0  0  0
    9.8859   -0.8606    0.0000 H   0  0  0  0  0  0  0  0  0  0  0  0
   11.4711   -0.5266    0.0000 H   0  0  0  0  0  0  0  0  0  0  0  0
   10.9504    3.0557    0.0000 H   0  0  0  0  0  0  0  0  0  0  0  0
    4.9063   -2.2985    0.0000 H   0  0  0  0  0  0  0  0  0  0  0  0
   12.6339    2.6933    0.0000 H   0  0  0  0  0  0  0  0  0  0  0  0
    3.5348   -1.5017    0.0000 H   0  0  0  0  0  0  0  0  0  0  0  0
    4.9334    0.9209    0.0000 H   0  0  0  0  0  0  0  0  0  0  0  0
    1.9352    0.3600    0.0000 H   0  0  0  0  0  0  0  0  0  0  0  0
    1.3834   -0.3214    0.0000 H   0  0  0  0  0  0  0  0  0  0  0  0
    2.0648   -0.8732    0.0000 H   0  0  0  0  0  0  0  0  0  0  0  0
  1  3  1  0  0  0  0
  1 10  1  0  0  0  0
  1 13  1  0  0  0  0
  2 14  1  0  0  0  0
  2 16  1  0  0  0  0
  2 20  1  0  0  0  0
  3  5  2  0  0  0  0
  4 13  2  0  0  0  0
  4 19  1  0  0  0  0
  5 17  1  0  0  0  0
  6 16  2  0  0  0  0
  6 23  1  0  0  0  0
  7 17  2  0  0  0  0
  7 22  1  0  0  0  0
  8  9  1  0  0  0  0
  8 24  1  0  0  0  0
  8 26  1  0  0  0  0
  9 25  2  0  0  0  0
 10 11  1  0  0  0  0
 10 12  1  1  0  0  0
 10 27  1  0  0  0  0
 11 14  2  0  0  0  0
 11 15  1  0  0  0  0
 12 28  1  0  0  0  0
 12 29  1  0  0  0  0
 12 30  1  0  0  0  0
 13 17  1  0  0  0  0
 14 31  1  0  0  0  0
 15 18  2  0  0  0  0
 15 32  1  0  0  0  0
 16 18  1  0  0  0  0
 18 33  1  0  0  0  0
 19 21  1  0  0  0  0
 19 22  2  0  0  0  0
 20 23  2  0  0  0  0
 20 34  1  0  0  0  0
 21 24  2  0  0  0  0
 21 25  1  0  0  0  0
 22 35  1  0  0  0  0
 23 36  1  0  0  0  0
 24 37  1  0  0  0  0
 25 38  1  0  0  0  0
 26 39  1  0  0  0  0
 26 40  1  0  0  0  0
 26 41  1  0  0  0  0
M  END
> <PUBCHEM_COMPOUND_CID>
68289010

> <PUBCHEM_COMPOUND_CANONICALIZED>
1

> <PUBCHEM_CACTVS_COMPLEXITY>
505

> <PUBCHEM_CACTVS_HBOND_ACCEPTOR>
6

> <PUBCHEM_CACTVS_HBOND_DONOR>
0

> <PUBCHEM_CACTVS_ROTATABLE_BOND>
3

> <PUBCHEM_CACTVS_SUBSKEYS>
AAADccB7wAAAAAAAAAAAAAAAAAAAAWLFgAAsWAAAAAAAAFgB/gAAHAAIAAAADCjBHwQ/sJ8MGACiAzZnZACShC8xkqAd2CA4dJiIaOLA2dGUpAhoiALIyCcQAAAOAAAAAAAAAAAAAAAAAAAAAAAAAAAAAA==

> <PUBCHEM_IUPAC_OPENEYE_NAME>
3-[(1S)-1-imidazo[1,2-a]pyridin-6-ylethyl]-5-(1-methylpyrazol-4-yl)triazolo[4,5-b]pyrazine

> <PUBCHEM_IUPAC_CAS_NAME>
3-[(1S)-1-(6-imidazo[1,2-a]pyridinyl)ethyl]-5-(1-methyl-4-pyrazolyl)triazolo[4,5-b]pyrazine

> <PUBCHEM_IUPAC_NAME_MARKUP>
3-[(1<I>S</I>)-1-imidazo[1,2-a]pyridin-6-ylethyl]-5-(1-methylpyrazol-4-yl)triazolo[4,5-b]pyrazine

> <PUBCHEM_IUPAC_NAME>
3-[(1S)-1-imidazo[1,2-a]pyridin-6-ylethyl]-5-(1-methylpyrazol-4-yl)triazolo[4,5-b]pyrazine

> <PUBCHEM_IUPAC_SYSTEMATIC_NAME>
3-[(1S)-1-imidazo[1,2-a]pyridin-6-ylethyl]-5-(1-methylpyrazol-4-yl)-[1,2,3]triazolo[4,5-b]pyrazine

> <PUBCHEM_IUPAC_TRADITIONAL_NAME>
3-[(1S)-1-imidazo[1,2-a]pyridin-6-ylethyl]-5-(1-methylpyrazol-4-yl)triazolo[4,5-b]pyrazine

> <PUBCHEM_IUPAC_INCHI>
InChI=1S/C17H15N9/c1-11(12-3-4-15-18-5-6-25(15)10-12)26-17-16(22-23-26)19-8-14(21-17)13-7-20-24(2)9-13/h3-11H,1-2H3/t11-/m0/s1

> <PUBCHEM_IUPAC_INCHIKEY>
XYDNMOZJKOGZLS-NSHDSACASA-N

> <PUBCHEM_XLOGP3_AA>
1.5

> <PUBCHEM_EXACT_MASS>
345.145042

> <PUBCHEM_MOLECULAR_FORMULA>
C17H15N9

> <PUBCHEM_MOLECULAR_WEIGHT>
345.4

> <PUBCHEM_OPENEYE_CAN_SMILES>
CC(C1=CN2C=CN=C2C=C1)N3C4=NC(=CN=C4N=N3)C5=CN(N=C5)C

> <PUBCHEM_OPENEYE_ISO_SMILES>
C[C@@H](C1=CN2C=CN=C2C=C1)N3C4=NC(=CN=C4N=N3)C5=CN(N=C5)C

> <PUBCHEM_CACTVS_TPSA>
91.6

> <PUBCHEM_MONOISOTOPIC_WEIGHT>
345.145042

> <PUBCHEM_TOTAL_CHARGE>
0

> <PUBCHEM_HEAVY_ATOM_COUNT>
26

> <PUBCHEM_ATOM_DEF_STEREO_COUNT>
1

> <PUBCHEM_ATOM_UDEF_STEREO_COUNT>
0

> <PUBCHEM_BOND_DEF_STEREO_COUNT>
0

> <PUBCHEM_BOND_UDEF_STEREO_COUNT>
0

> <PUBCHEM_ISOTOPIC_ATOM_COUNT>
0

> <PUBCHEM_COMPONENT_COUNT>
1

> <PUBCHEM_CACTVS_TAUTO_COUNT>
-1

> <PUBCHEM_COORDINATE_TYPE>
1
5
255

> <PUBCHEM_BONDANNOTATIONS>
1  13  8
1  3  8
10  12  5
11  14  8
11  15  8
13  17  8
15  18  8
16  18  8
19  22  8
2  14  8
2  16  8
2  20  8
20  23  8
21  24  8
21  25  8
3  5  8
4  13  8
4  19  8
5  17  8
6  16  8
6  23  8
7  17  8
7  22  8
8  24  8
8  9  8
9  25  8

$$$$
24753719
  -OEChem-02182015172D

 38 40  0     0  0  0  0  0  0999 V2000
   12.0380   -1.3148    0.0000 O   0  0  0  0  0  0  0  0  0  0  0  0
    4.2690   -0.7347    0.0000 O   0  0  0  0  0  0  0  0  0  0  0  0
    2.5369    0.2653    0.0000 O   0  0  0  0  0  0  0  0  0  0  0  0
    7.8133    0.4606    0.0000 N   0  0  0  0  0  0  0  0  0  0  0  0
    3.4030    0.7653    0.0000 N   0  0  0  0  0  0  0  0  0  0  0  0
    6.8671    0.7653    0.0000 C   0  0  0  0  0  0  0  0  0  0  0  0
    8.1240   -0.4899    0.0000 C   0  0  0  0  0  0  0  0  0  0  0  0
    6.8671    1.7653    0.0000 C   0  0  0  0  0  0  0  0  0  0  0  0
    8.3969    1.2653    0.0000 C   0  0  0  0  0  0  0  0  0  0  0  0
    7.8133    2.0701    0.0000 C   0  0  0  0  0  0  0  0  0  0  0  0
    9.1024   -0.6961    0.0000 C   0  0  0  0  0  0  0  0  0  0  0  0
    6.0010    0.2653    0.0000 C   0  0  0  0  0  0  0  0  0  0  0  0
    6.0010    2.2653    0.0000 C   0  0  0  0  0  0  0  0  0  0  0  0
    5.1350    0.7653    0.0000 C   0  0  0  0  0  0  0  0  0  0  0  0
    5.1350    1.7653    0.0000 C   0  0  0  0  0  0  0  0  0  0  0  0
    9.7703    0.0482    0.0000 C   0  0  0  0  0  0  0  0  0  0  0  0
    9.4131   -1.6467    0.0000 C   0  0  0  0  0  0  0  0  0  0  0  0
   10.7488   -0.1581    0.0000 C   0  0  0  0  0  0  0  0  0  0  0  0
   10.3916   -1.8529    0.0000 C   0  0  0  0  0  0  0  0  0  0  0  0
   11.0595   -1.1086    0.0000 C   0  0  0  0  0  0  0  0  0  0  0  0
    4.2690    0.2653    0.0000 C   0  0  0  0  0  0  0  0  0  0  0  0
   12.3486   -2.2653    0.0000 C   0  0  0  0  0  0  0  0  0  0  0  0
    7.5101   -0.5773    0.0000 H   0  0  0  0  0  0  0  0  0  0  0  0
    8.1034   -1.1096    0.0000 H   0  0  0  0  0  0  0  0  0  0  0  0
    9.0169    1.2653    0.0000 H   0  0  0  0  0  0  0  0  0  0  0  0
    8.0059    2.6594    0.0000 H   0  0  0  0  0  0  0  0  0  0  0  0
    6.0010   -0.3547    0.0000 H   0  0  0  0  0  0  0  0  0  0  0  0
    6.0010    2.8853    0.0000 H   0  0  0  0  0  0  0  0  0  0  0  0
    4.5981    2.0753    0.0000 H   0  0  0  0  0  0  0  0  0  0  0  0
    9.5777    0.6375    0.0000 H   0  0  0  0  0  0  0  0  0  0  0  0
    8.9990   -2.1081    0.0000 H   0  0  0  0  0  0  0  0  0  0  0  0
   11.1629    0.3034    0.0000 H   0  0  0  0  0  0  0  0  0  0  0  0
   10.5842   -2.4422    0.0000 H   0  0  0  0  0  0  0  0  0  0  0  0
    3.4030    1.3853    0.0000 H   0  0  0  0  0  0  0  0  0  0  0  0
   11.7593   -2.4579    0.0000 H   0  0  0  0  0  0  0  0  0  0  0  0
   12.5412   -2.8546    0.0000 H   0  0  0  0  0  0  0  0  0  0  0  0
   12.9380   -2.0727    0.0000 H   0  0  0  0  0  0  0  0  0  0  0  0
    2.0000    0.5753    0.0000 H   0  0  0  0  0  0  0  0  0  0  0  0
  1 20  1  0  0  0  0
  1 22  1  0  0  0  0
  2 21  2  0  0  0  0
  3  5  1  0  0  0  0
  3 38  1  0  0  0  0
  4  6  1  0  0  0  0
  4  7  1  0  0  0  0
  4  9  1  0  0  0  0
  5 21  1  0  0  0  0
  5 34  1  0  0  0  0
  6  8  2  0  0  0  0
  6 12  1  0  0  0  0
  7 11  1  0  0  0  0
  7 23  1  0  0  0  0
  7 24  1  0  0  0  0
  8 10  1  0  0  0  0
  8 13  1  0  0  0  0
  9 10  2  0  0  0  0
  9 25  1  0  0  0  0
 10 26  1  0  0  0  0
 11 16  2  0  0  0  0
 11 17  1  0  0  0  0
 12 14  2  0  0  0  0
 12 27  1  0  0  0  0
 13 15  2  0  0  0  0
 13 28  1  0  0  0  0
 14 15  1  0  0  0  0
 14 21  1  0  0  0  0
 15 29  1  0  0  0  0
 16 18  1  0  0  0  0
 16 30  1  0  0  0  0
 17 19  2  0  0  0  0
 17 31  1  0  0  0  0
 18 20  2  0  0  0  0
 18 32  1  0  0  0  0
 19 20  1  0  0  0  0
 19 33  1  0  0  0  0
 22 35  1  0  0  0  0
 22 36  1  0  0  0  0
 22 37  1  0  0  0  0
M  END
> <PUBCHEM_COMPOUND_CID>
24753719

> <PUBCHEM_COMPOUND_CANONICALIZED>
1

> <PUBCHEM_CACTVS_COMPLEXITY>
382

> <PUBCHEM_CACTVS_HBOND_ACCEPTOR>
3

> <PUBCHEM_CACTVS_HBOND_DONOR>
2

> <PUBCHEM_CACTVS_ROTATABLE_BOND>
4

> <PUBCHEM_CACTVS_SUBSKEYS>
AAADceB7MAAAAAAAAAAAAAAAAAAAAWAAAAAwYAAAAAAAAFgB9AAAHgAUCAAADAzBngY+xvNcFACoAzV3VACCiCA1IiAo2CE+bNgMJvLEtZuEMShkwBHI6Yec2MKOYAAAQAACAADAAACAAAQAAAAAAAAAAA==

> <PUBCHEM_IUPAC_OPENEYE_NAME>
1-[(4-methoxyphenyl)methyl]indole-6-carbohydroxamic acid

> <PUBCHEM_IUPAC_CAS_NAME>
N-hydroxy-1-[(4-methoxyphenyl)methyl]-6-indolecarboxamide

> <PUBCHEM_IUPAC_NAME_MARKUP>
<I>N</I>-hydroxy-1-[(4-methoxyphenyl)methyl]indole-6-carboxamide

> <PUBCHEM_IUPAC_NAME>
N-hydroxy-1-[(4-methoxyphenyl)methyl]indole-6-carboxamide

> <PUBCHEM_IUPAC_SYSTEMATIC_NAME>
1-[(4-methoxyphenyl)methyl]-N-oxidanyl-indole-6-carboxamide

> <PUBCHEM_IUPAC_TRADITIONAL_NAME>
1-p-anisylindole-6-carbohydroxamic acid

> <PUBCHEM_IUPAC_INCHI>
InChI=1S/C17H16N2O3/c1-22-15-6-2-12(3-7-15)11-19-9-8-13-4-5-14(10-16(13)19)17(20)18-21/h2-10,21H,11H2,1H3,(H,18,20)

> <PUBCHEM_IUPAC_INCHIKEY>
AJRGHIGYPXNABY-UHFFFAOYSA-N

> <PUBCHEM_XLOGP3_AA>
2.4

> <PUBCHEM_EXACT_MASS>
296.116092

> <PUBCHEM_MOLECULAR_FORMULA>
C17H16N2O3

> <PUBCHEM_MOLECULAR_WEIGHT>
296.32

> <PUBCHEM_OPENEYE_CAN_SMILES>
COC1=CC=C(C=C1)CN2C=CC3=C2C=C(C=C3)C(=O)NO

> <PUBCHEM_OPENEYE_ISO_SMILES>
COC1=CC=C(C=C1)CN2C=CC3=C2C=C(C=C3)C(=O)NO

> <PUBCHEM_CACTVS_TPSA>
63.5

> <PUBCHEM_MONOISOTOPIC_WEIGHT>
296.116092

> <PUBCHEM_TOTAL_CHARGE>
0

> <PUBCHEM_HEAVY_ATOM_COUNT>
22

> <PUBCHEM_ATOM_DEF_STEREO_COUNT>
0

> <PUBCHEM_ATOM_UDEF_STEREO_COUNT>
0

> <PUBCHEM_BOND_DEF_STEREO_COUNT>
0

> <PUBCHEM_BOND_UDEF_STEREO_COUNT>
0

> <PUBCHEM_ISOTOPIC_ATOM_COUNT>
0

> <PUBCHEM_COMPONENT_COUNT>
1

> <PUBCHEM_CACTVS_TAUTO_COUNT>
-1

> <PUBCHEM_COORDINATE_TYPE>
1
5
255

> <PUBCHEM_BONDANNOTATIONS>
11  16  8
11  17  8
12  14  8
13  15  8
14  15  8
16  18  8
17  19  8
18  20  8
19  20  8
4  6  8
4  9  8
6  12  8
6  8  8
8  10  8
8  13  8
9  10  8

$$$$
44462758
  -OEChem-02182015172D

 52 55  0     1  0  0  0  0  0999 V2000
    3.4030    2.0000    0.0000 O   0  0  0  0  0  0  0  0  0  0  0  0
    6.8671   -1.0000    0.0000 N   0  0  0  0  0  0  0  0  0  0  0  0
    8.5991   -2.0000    0.0000 N   0  0  0  0  0  0  0  0  0  0  0  0
    6.0010    0.5000    0.0000 N   0  0  0  0  0  0  0  0  0  0  0  0
    5.1350   -1.0000    0.0000 N   0  0  0  0  0  0  0  0  0  0  0  0
    5.1350    2.0000    0.0000 N   0  0  0  0  0  0  0  0  0  0  0  0
    8.5991    2.0000    0.0000 N   0  0  0  0  0  0  0  0  0  0  0  0
    2.5369    0.5000    0.0000 N   0  0  0  0  0  0  0  0  0  0  0  0
    8.7036    1.0055    0.0000 N   0  0  0  0  0  0  0  0  0  0  0  0
    9.5127    2.4067    0.0000 N   0  0  0  0  0  0  0  0  0  0  0  0
    6.8671   -2.0000    0.0000 C   0  0  1  0  0  0  0  0  0  0  0  0
    7.7331   -2.5000    0.0000 C   0  0  2  0  0  0  0  0  0  0  0  0
    6.0010   -2.5000    0.0000 C   0  0  0  0  0  0  0  0  0  0  0  0
    7.7331   -3.5000    0.0000 C   0  0  0  0  0  0  0  0  0  0  0  0
    6.0010   -3.5000    0.0000 C   0  0  0  0  0  0  0  0  0  0  0  0
    6.8671   -4.0000    0.0000 C   0  0  0  0  0  0  0  0  0  0  0  0
    6.0010   -0.5000    0.0000 C   0  0  0  0  0  0  0  0  0  0  0  0
    5.1350    1.0000    0.0000 C   0  0  0  0  0  0  0  0  0  0  0  0
    4.2690   -0.5000    0.0000 C   0  0  0  0  0  0  0  0  0  0  0  0
    4.2690    0.5000    0.0000 C   0  0  0  0  0  0  0  0  0  0  0  0
    6.0010    2.5000    0.0000 C   0  0  0  0  0  0  0  0  0  0  0  0
    3.4030    1.0000    0.0000 C   0  0  0  0  0  0  0  0  0  0  0  0
    6.8671    2.0000    0.0000 C   0  0  0  0  0  0  0  0  0  0  0  0
    6.0010    3.5000    0.0000 C   0  0  0  0  0  0  0  0  0  0  0  0
    7.7331    2.5000    0.0000 C   0  0  0  0  0  0  0  0  0  0  0  0
    6.8671    4.0000    0.0000 C   0  0  0  0  0  0  0  0  0  0  0  0
    7.7331    3.5000    0.0000 C   0  0  0  0  0  0  0  0  0  0  0  0
    9.6818    0.7976    0.0000 C   0  0  0  0  0  0  0  0  0  0  0  0
   10.1818    1.6636    0.0000 C   0  0  0  0  0  0  0  0  0  0  0  0
    6.3301   -1.6900    0.0000 H   0  0  0  0  0  0  0  0  0  0  0  0
    7.7331   -1.8800    0.0000 H   0  0  0  0  0  0  0  0  0  0  0  0
    5.7890   -1.9174    0.0000 H   0  0  0  0  0  0  0  0  0  0  0  0
    5.3905   -2.6077    0.0000 H   0  0  0  0  0  0  0  0  0  0  0  0
    7.9451   -4.0826    0.0000 H   0  0  0  0  0  0  0  0  0  0  0  0
    8.3437   -3.3923    0.0000 H   0  0  0  0  0  0  0  0  0  0  0  0
    5.3905   -3.3923    0.0000 H   0  0  0  0  0  0  0  0  0  0  0  0
    5.7890   -4.0826    0.0000 H   0  0  0  0  0  0  0  0  0  0  0  0
    6.4685   -4.4750    0.0000 H   0  0  0  0  0  0  0  0  0  0  0  0
    7.2656   -4.4750    0.0000 H   0  0  0  0  0  0  0  0  0  0  0  0
    7.4040   -0.6900    0.0000 H   0  0  0  0  0  0  0  0  0  0  0  0
    9.1360   -2.3100    0.0000 H   0  0  0  0  0  0  0  0  0  0  0  0
    8.5991   -1.3800    0.0000 H   0  0  0  0  0  0  0  0  0  0  0  0
    3.7320   -0.8100    0.0000 H   0  0  0  0  0  0  0  0  0  0  0  0
    4.5981    2.3100    0.0000 H   0  0  0  0  0  0  0  0  0  0  0  0
    6.8671    1.3800    0.0000 H   0  0  0  0  0  0  0  0  0  0  0  0
    5.4641    3.8100    0.0000 H   0  0  0  0  0  0  0  0  0  0  0  0
    6.8671    4.6200    0.0000 H   0  0  0  0  0  0  0  0  0  0  0  0
    8.2700    3.8100    0.0000 H   0  0  0  0  0  0  0  0  0  0  0  0
    2.0000    0.8100    0.0000 H   0  0  0  0  0  0  0  0  0  0  0  0
    2.5369   -0.1200    0.0000 H   0  0  0  0  0  0  0  0  0  0  0  0
    9.9340    0.2312    0.0000 H   0  0  0  0  0  0  0  0  0  0  0  0
   10.7984    1.7284    0.0000 H   0  0  0  0  0  0  0  0  0  0  0  0
  1 22  2  0  0  0  0
 11  2  1  1  0  0  0
  2 17  1  0  0  0  0
  2 40  1  0  0  0  0
 12  3  1  1  0  0  0
  3 41  1  0  0  0  0
  3 42  1  0  0  0  0
  4 17  1  0  0  0  0
  4 18  2  0  0  0  0
  5 17  2  0  0  0  0
  5 19  1  0  0  0  0
  6 18  1  0  0  0  0
  6 21  1  0  0  0  0
  6 44  1  0  0  0  0
  7  9  1  0  0  0  0
  7 10  1  0  0  0  0
  7 25  1  0  0  0  0
  8 22  1  0  0  0  0
  8 49  1  0  0  0  0
  8 50  1  0  0  0  0
  9 28  2  0  0  0  0
 10 29  2  0  0  0  0
 11 12  1  0  0  0  0
 11 13  1  0  0  0  0
 11 30  1  0  0  0  0
 12 14  1  0  0  0  0
 12 31  1  0  0  0  0
 13 15  1  0  0  0  0
 13 32  1  0  0  0  0
 13 33  1  0  0  0  0
 14 16  1  0  0  0  0
 14 34  1  0  0  0  0
 14 35  1  0  0  0  0
 15 16  1  0  0  0  0
 15 36  1  0  0  0  0
 15 37  1  0  0  0  0
 16 38  1  0  0  0  0
 16 39  1  0  0  0  0
 18 20  1  0  0  0  0
 19 20  2  0  0  0  0
 19 43  1  0  0  0  0
 20 22  1  0  0  0  0
 21 23  2  0  0  0  0
 21 24  1  0  0  0  0
 23 25  1  0  0  0  0
 23 45  1  0  0  0  0
 24 26  2  0  0  0  0
 24 46  1  0  0  0  0
 25 27  2  0  0  0  0
 26 27  1  0  0  0  0
 26 47  1  0  0  0  0
 27 48  1  0  0  0  0
 28 29  1  0  0  0  0
 28 51  1  0  0  0  0
 29 52  1  0  0  0  0
M  END
> <PUBCHEM_COMPOUND_CID>
44462758

> <PUBCHEM_COMPOUND_CANONICALIZED>
1

> <PUBCHEM_CACTVS_COMPLEXITY>
544

> <PUBCHEM_CACTVS_HBOND_ACCEPTOR>
8

> <PUBCHEM_CACTVS_HBOND_DONOR>
4

> <PUBCHEM_CACTVS_ROTATABLE_BOND>
6

> <PUBCHEM_CACTVS_SUBSKEYS>
AAADceB74AAAAAAAAAAAAAAAAAAAAWAAAAA8YIAAAAAAAAAB8AAAHgAYAAAADCjBmgQ98JbIEACqAjd3dACShC01kqAZ2KE4dNiIaOrA2dGUJIhomALIyOcQAAAAAAAAAAQAAAAAAAAACAAAQAAAAAAAAA==

> <PUBCHEM_IUPAC_OPENEYE_NAME>
2-[[(1R,2S)-2-aminocyclohexyl]amino]-4-[3-(triazol-2-yl)anilino]pyrimidine-5-carboxamide

> <PUBCHEM_IUPAC_CAS_NAME>
2-[[(1R,2S)-2-aminocyclohexyl]amino]-4-[3-(2-triazolyl)anilino]-5-pyrimidinecarboxamide

> <PUBCHEM_IUPAC_NAME_MARKUP>
2-[[(1<I>R</I>,2<I>S</I>)-2-aminocyclohexyl]amino]-4-[3-(triazol-2-yl)anilino]pyrimidine-5-carboxamide

> <PUBCHEM_IUPAC_NAME>
2-[[(1R,2S)-2-aminocyclohexyl]amino]-4-[3-(triazol-2-yl)anilino]pyrimidine-5-carboxamide

> <PUBCHEM_IUPAC_SYSTEMATIC_NAME>
2-[[(1R,2S)-2-azanylcyclohexyl]amino]-4-[[3-(1,2,3-triazol-2-yl)phenyl]amino]pyrimidine-5-carboxamide

> <PUBCHEM_IUPAC_TRADITIONAL_NAME>
2-[[(1R,2S)-2-aminocyclohexyl]amino]-4-[3-(triazol-2-yl)anilino]pyrimidine-5-carboxamide

> <PUBCHEM_IUPAC_INCHI>
InChI=1S/C19H23N9O/c20-15-6-1-2-7-16(15)26-19-22-11-14(17(21)29)18(27-19)25-12-4-3-5-13(10-12)28-23-8-9-24-28/h3-5,8-11,15-16H,1-2,6-7,20H2,(H2,21,29)(H2,22,25,26,27)/t15-,16+/m0/s1

> <PUBCHEM_IUPAC_INCHIKEY>
TXGKRVFSSHPBAJ-JKSUJKDBSA-N

> <PUBCHEM_XLOGP3_AA>
2.2

> <PUBCHEM_EXACT_MASS>
393.202556

> <PUBCHEM_MOLECULAR_FORMULA>
C19H23N9O

> <PUBCHEM_MOLECULAR_WEIGHT>
393.4

> <PUBCHEM_OPENEYE_CAN_SMILES>
C1CCC(C(C1)N)NC2=NC=C(C(=N2)NC3=CC(=CC=C3)N4N=CC=N4)C(=O)N

> <PUBCHEM_OPENEYE_ISO_SMILES>
C1CC[C@H]([C@H](C1)N)NC2=NC=C(C(=N2)NC3=CC(=CC=C3)N4N=CC=N4)C(=O)N

> <PUBCHEM_CACTVS_TPSA>
150

> <PUBCHEM_MONOISOTOPIC_WEIGHT>
393.202556

> <PUBCHEM_TOTAL_CHARGE>
0

> <PUBCHEM_HEAVY_ATOM_COUNT>
29

> <PUBCHEM_ATOM_DEF_STEREO_COUNT>
2

> <PUBCHEM_ATOM_UDEF_STEREO_COUNT>
0

> <PUBCHEM_BOND_DEF_STEREO_COUNT>
0

> <PUBCHEM_BOND_UDEF_STEREO_COUNT>
0

> <PUBCHEM_ISOTOPIC_ATOM_COUNT>
0

> <PUBCHEM_COMPONENT_COUNT>
1

> <PUBCHEM_CACTVS_TAUTO_COUNT>
-1

> <PUBCHEM_COORDINATE_TYPE>
1
5
255

> <PUBCHEM_BONDANNOTATIONS>
10  29  8
18  20  8
19  20  8
11  2  5
21  23  8
21  24  8
23  25  8
24  26  8
25  27  8
26  27  8
28  29  8
12  3  5
4  17  8
4  18  8
5  17  8
5  19  8
7  10  8
7  9  8
9  28  8

$$$$
11228183
  -OEChem-02182015172D

101106  0     1  0  0  0  0  0999 V2000
    2.8660   10.5000    0.0000 Cl  0  0  0  0  0  0  0  0  0  0  0  0
    4.5981   -1.5000    0.0000 S   0  0  0  0  0  0  0  0  0  0  0  0
    6.3301   -7.5000    0.0000 S   0  0  0  0  0  0  0  0  0  0  0  0
    6.3301   -0.5000    0.0000 O   0  0  0  0  0  0  0  0  0  0  0  0
    5.5981   -1.5000    0.0000 O   0  0  0  0  0  0  0  0  0  0  0  0
    3.5981   -1.5000    0.0000 O   0  0  0  0  0  0  0  0  0  0  0  0
    2.0000   -4.0000    0.0000 O   0  5  0  0  0  0  0  0  0  0  0  0
    2.8660   -5.5000    0.0000 O   0  0  0  0  0  0  0  0  0  0  0  0
    5.4641    6.0000    0.0000 N   0  0  0  0  0  0  0  0  0  0  0  0
    5.4641    4.0000    0.0000 N   0  0  0  0  0  0  0  0  0  0  0  0
    4.5981   -5.5000    0.0000 N   0  0  0  0  0  0  0  0  0  0  0  0
    8.0622   -5.5000    0.0000 N   0  0  0  0  0  0  0  0  0  0  0  0
    4.5981   -0.5000    0.0000 N   0  0  0  0  0  0  0  0  0  0  0  0
    2.8660   -4.5000    0.0000 N   0  3  0  0  0  0  0  0  0  0  0  0
    4.5981    5.5000    0.0000 C   0  0  0  0  0  0  0  0  0  0  0  0
    6.3301    5.5000    0.0000 C   0  0  0  0  0  0  0  0  0  0  0  0
    4.5981    4.5000    0.0000 C   0  0  0  0  0  0  0  0  0  0  0  0
    6.3301    4.5000    0.0000 C   0  0  0  0  0  0  0  0  0  0  0  0
    5.4641    7.0000    0.0000 C   0  0  0  0  0  0  0  0  0  0  0  0
    5.4641    3.0000    0.0000 C   0  0  0  0  0  0  0  0  0  0  0  0
    6.3301    7.5000    0.0000 C   0  0  0  0  0  0  0  0  0  0  0  0
    6.3301    8.5000    0.0000 C   0  0  0  0  0  0  0  0  0  0  0  0
    4.5981    2.5000    0.0000 C   0  0  0  0  0  0  0  0  0  0  0  0
    6.3301    2.5000    0.0000 C   0  0  0  0  0  0  0  0  0  0  0  0
    7.1962    7.0000    0.0000 C   0  0  0  0  0  0  0  0  0  0  0  0
    5.4641   -6.0000    0.0000 C   0  0  2  0  0  0  0  0  0  0  0  0
    4.5981    1.5000    0.0000 C   0  0  0  0  0  0  0  0  0  0  0  0
    6.3301    1.5000    0.0000 C   0  0  0  0  0  0  0  0  0  0  0  0
    6.3301   -5.5000    0.0000 C   0  0  0  0  0  0  0  0  0  0  0  0
    5.4641    1.0000    0.0000 C   0  0  0  0  0  0  0  0  0  0  0  0
    5.4641    9.0000    0.0000 C   0  0  0  0  0  0  0  0  0  0  0  0
    7.1962    9.0000    0.0000 C   0  0  0  0  0  0  0  0  0  0  0  0
    8.0622    7.5000    0.0000 C   0  0  0  0  0  0  0  0  0  0  0  0
    7.1962   -6.0000    0.0000 C   0  0  0  0  0  0  0  0  0  0  0  0
    5.4641   -7.0000    0.0000 C   0  0  0  0  0  0  0  0  0  0  0  0
    8.0622    8.5000    0.0000 C   0  0  0  0  0  0  0  0  0  0  0  0
    4.5981   -4.5000    0.0000 C   0  0  0  0  0  0  0  0  0  0  0  0
    5.4641   -0.0000    0.0000 C   0  0  0  0  0  0  0  0  0  0  0  0
    4.5981    8.5000    0.0000 C   0  0  0  0  0  0  0  0  0  0  0  0
    5.4641   10.0000    0.0000 C   0  0  0  0  0  0  0  0  0  0  0  0
    4.5981   -2.5000    0.0000 C   0  0  0  0  0  0  0  0  0  0  0  0
    3.7320   -4.0000    0.0000 C   0  0  0  0  0  0  0  0  0  0  0  0
    5.4641   -4.0000    0.0000 C   0  0  0  0  0  0  0  0  0  0  0  0
    3.7320   -3.0000    0.0000 C   0  0  0  0  0  0  0  0  0  0  0  0
    5.4641   -3.0000    0.0000 C   0  0  0  0  0  0  0  0  0  0  0  0
    8.9282   -6.0000    0.0000 C   0  0  0  0  0  0  0  0  0  0  0  0
    8.0622   -4.5000    0.0000 C   0  0  0  0  0  0  0  0  0  0  0  0
    3.7320    9.0000    0.0000 C   0  0  0  0  0  0  0  0  0  0  0  0
    4.5981   10.5000    0.0000 C   0  0  0  0  0  0  0  0  0  0  0  0
    3.7320   10.0000    0.0000 C   0  0  0  0  0  0  0  0  0  0  0  0
    6.3301   -8.5000    0.0000 C   0  0  0  0  0  0  0  0  0  0  0  0
    5.4641   -9.0000    0.0000 C   0  0  0  0  0  0  0  0  0  0  0  0
    7.1962   -9.0000    0.0000 C   0  0  0  0  0  0  0  0  0  0  0  0
    5.4641  -10.0000    0.0000 C   0  0  0  0  0  0  0  0  0  0  0  0
    7.1962  -10.0000    0.0000 C   0  0  0  0  0  0  0  0  0  0  0  0
    6.3301  -10.5000    0.0000 C   0  0  0  0  0  0  0  0  0  0  0  0
    4.3860    6.0826    0.0000 H   0  0  0  0  0  0  0  0  0  0  0  0
    3.9875    5.3923    0.0000 H   0  0  0  0  0  0  0  0  0  0  0  0
    6.9407    5.3923    0.0000 H   0  0  0  0  0  0  0  0  0  0  0  0
    6.5422    6.0826    0.0000 H   0  0  0  0  0  0  0  0  0  0  0  0
    3.9875    4.6077    0.0000 H   0  0  0  0  0  0  0  0  0  0  0  0
    4.3860    3.9174    0.0000 H   0  0  0  0  0  0  0  0  0  0  0  0
    6.5422    3.9174    0.0000 H   0  0  0  0  0  0  0  0  0  0  0  0
    6.9407    4.6077    0.0000 H   0  0  0  0  0  0  0  0  0  0  0  0
    5.2520    7.5826    0.0000 H   0  0  0  0  0  0  0  0  0  0  0  0
    4.8535    6.8923    0.0000 H   0  0  0  0  0  0  0  0  0  0  0  0
    4.0611    2.8100    0.0000 H   0  0  0  0  0  0  0  0  0  0  0  0
    6.8671    2.8100    0.0000 H   0  0  0  0  0  0  0  0  0  0  0  0
    7.1962    6.3800    0.0000 H   0  0  0  0  0  0  0  0  0  0  0  0
    5.4641   -5.3800    0.0000 H   0  0  0  0  0  0  0  0  0  0  0  0
    6.7287   -5.0250    0.0000 H   0  0  0  0  0  0  0  0  0  0  0  0
    5.9316   -5.0250    0.0000 H   0  0  0  0  0  0  0  0  0  0  0  0
    4.0611    1.1900    0.0000 H   0  0  0  0  0  0  0  0  0  0  0  0
    6.8671    1.1900    0.0000 H   0  0  0  0  0  0  0  0  0  0  0  0
    7.1962    9.6200    0.0000 H   0  0  0  0  0  0  0  0  0  0  0  0
    6.7976   -6.4750    0.0000 H   0  0  0  0  0  0  0  0  0  0  0  0
    7.5947   -6.4750    0.0000 H   0  0  0  0  0  0  0  0  0  0  0  0
    8.5991    7.1900    0.0000 H   0  0  0  0  0  0  0  0  0  0  0  0
    4.8535   -6.8923    0.0000 H   0  0  0  0  0  0  0  0  0  0  0  0
    5.2520   -7.5826    0.0000 H   0  0  0  0  0  0  0  0  0  0  0  0
    4.0611   -5.8100    0.0000 H   0  0  0  0  0  0  0  0  0  0  0  0
    8.5991    8.8100    0.0000 H   0  0  0  0  0  0  0  0  0  0  0  0
    4.5981    7.8800    0.0000 H   0  0  0  0  0  0  0  0  0  0  0  0
    6.0010   10.3100    0.0000 H   0  0  0  0  0  0  0  0  0  0  0  0
    4.0611   -0.1900    0.0000 H   0  0  0  0  0  0  0  0  0  0  0  0
    6.0010   -4.3100    0.0000 H   0  0  0  0  0  0  0  0  0  0  0  0
    3.1951   -2.6900    0.0000 H   0  0  0  0  0  0  0  0  0  0  0  0
    6.0010   -2.6900    0.0000 H   0  0  0  0  0  0  0  0  0  0  0  0
    8.6182   -6.5369    0.0000 H   0  0  0  0  0  0  0  0  0  0  0  0
    9.4651   -6.3100    0.0000 H   0  0  0  0  0  0  0  0  0  0  0  0
    9.2382   -5.4631    0.0000 H   0  0  0  0  0  0  0  0  0  0  0  0
    8.6822   -4.5000    0.0000 H   0  0  0  0  0  0  0  0  0  0  0  0
    8.0622   -3.8800    0.0000 H   0  0  0  0  0  0  0  0  0  0  0  0
    7.4422   -4.5000    0.0000 H   0  0  0  0  0  0  0  0  0  0  0  0
    3.1951    8.6900    0.0000 H   0  0  0  0  0  0  0  0  0  0  0  0
    4.5981   11.1200    0.0000 H   0  0  0  0  0  0  0  0  0  0  0  0
    4.9272   -8.6900    0.0000 H   0  0  0  0  0  0  0  0  0  0  0  0
    7.7331   -8.6900    0.0000 H   0  0  0  0  0  0  0  0  0  0  0  0
    4.9272  -10.3100    0.0000 H   0  0  0  0  0  0  0  0  0  0  0  0
    7.7331  -10.3100    0.0000 H   0  0  0  0  0  0  0  0  0  0  0  0
    6.3301  -11.1200    0.0000 H   0  0  0  0  0  0  0  0  0  0  0  0
  1 50  1  0  0  0  0
  2  5  2  0  0  0  0
  2  6  2  0  0  0  0
  2 13  1  0  0  0  0
  2 41  1  0  0  0  0
  3 35  1  0  0  0  0
  3 51  1  0  0  0  0
  4 38  2  0  0  0  0
  7 14  1  0  0  0  0
  8 14  2  0  0  0  0
  9 15  1  0  0  0  0
  9 16  1  0  0  0  0
  9 19  1  0  0  0  0
 10 17  1  0  0  0  0
 10 18  1  0  0  0  0
 10 20  1  0  0  0  0
 26 11  1  6  0  0  0
 11 37  1  0  0  0  0
 11 81  1  0  0  0  0
 12 34  1  0  0  0  0
 12 46  1  0  0  0  0
 12 47  1  0  0  0  0
 13 38  1  0  0  0  0
 13 85  1  0  0  0  0
 14 42  1  0  0  0  0
 15 17  1  0  0  0  0
 15 57  1  0  0  0  0
 15 58  1  0  0  0  0
 16 18  1  0  0  0  0
 16 59  1  0  0  0  0
 16 60  1  0  0  0  0
 17 61  1  0  0  0  0
 17 62  1  0  0  0  0
 18 63  1  0  0  0  0
 18 64  1  0  0  0  0
 19 21  1  0  0  0  0
 19 65  1  0  0  0  0
 19 66  1  0  0  0  0
 20 23  2  0  0  0  0
 20 24  1  0  0  0  0
 21 22  1  0  0  0  0
 21 25  2  0  0  0  0
 22 31  1  0  0  0  0
 22 32  2  0  0  0  0
 23 27  1  0  0  0  0
 23 67  1  0  0  0  0
 24 28  2  0  0  0  0
 24 68  1  0  0  0  0
 25 33  1  0  0  0  0
 25 69  1  0  0  0  0
 26 29  1  0  0  0  0
 26 35  1  0  0  0  0
 26 70  1  0  0  0  0
 27 30  2  0  0  0  0
 27 73  1  0  0  0  0
 28 30  1  0  0  0  0
 28 74  1  0  0  0  0
 29 34  1  0  0  0  0
 29 71  1  0  0  0  0
 29 72  1  0  0  0  0
 30 38  1  0  0  0  0
 31 39  2  0  0  0  0
 31 40  1  0  0  0  0
 32 36  1  0  0  0  0
 32 75  1  0  0  0  0
 33 36  2  0  0  0  0
 33 78  1  0  0  0  0
 34 76  1  0  0  0  0
 34 77  1  0  0  0  0
 35 79  1  0  0  0  0
 35 80  1  0  0  0  0
 36 82  1  0  0  0  0
 37 42  2  0  0  0  0
 37 43  1  0  0  0  0
 39 48  1  0  0  0  0
 39 83  1  0  0  0  0
 40 49  2  0  0  0  0
 40 84  1  0  0  0  0
 41 44  2  0  0  0  0
 41 45  1  0  0  0  0
 42 44  1  0  0  0  0
 43 45  2  0  0  0  0
 43 86  1  0  0  0  0
 44 87  1  0  0  0  0
 45 88  1  0  0  0  0
 46 89  1  0  0  0  0
 46 90  1  0  0  0  0
 46 91  1  0  0  0  0
 47 92  1  0  0  0  0
 47 93  1  0  0  0  0
 47 94  1  0  0  0  0
 48 50  2  0  0  0  0
 48 95  1  0  0  0  0
 49 50  1  0  0  0  0
 49 96  1  0  0  0  0
 51 52  2  0  0  0  0
 51 53  1  0  0  0  0
 52 54  1  0  0  0  0
 52 97  1  0  0  0  0
 53 55  2  0  0  0  0
 53 98  1  0  0  0  0
 54 56  2  0  0  0  0
 54 99  1  0  0  0  0
 55 56  1  0  0  0  0
 55100  1  0  0  0  0
 56101  1  0  0  0  0
M  CHG  2   7  -1  14   1
M  END
> <PUBCHEM_COMPOUND_CID>
11228183

> <PUBCHEM_COMPOUND_CANONICALIZED>
1

> <PUBCHEM_CACTVS_COMPLEXITY>
1320

> <PUBCHEM_CACTVS_HBOND_ACCEPTOR>
10

> <PUBCHEM_CACTVS_HBOND_DONOR>
2

> <PUBCHEM_CACTVS_ROTATABLE_BOND>
15

> <PUBCHEM_CACTVS_SUBSKEYS>
AAADcfB/uABkAAAAAAAAAAAAAAAAAAAAAAA8YMGDAAAAAAABVAAAHgYUQAAADCrF2CSywYPQQAqJAiVSU3DCABAlDxAoiJkIdsoIYDLh15GUIQxgkIDoyYcYicCejAQAACAQACAYCAAAQCAAQAAAAAAAAA==

> <PUBCHEM_IUPAC_OPENEYE_NAME>
4-[4-[[2-(4-chlorophenyl)phenyl]methyl]piperazin-1-yl]-N-[4-[[(1R)-3-(dimethylamino)-1-(phenylsulfanylmethyl)propyl]amino]-3-nitro-phenyl]sulfonyl-benzamide

> <PUBCHEM_IUPAC_CAS_NAME>
4-[4-[[2-(4-chlorophenyl)phenyl]methyl]-1-piperazinyl]-N-[4-[[(2R)-4-(dimethylamino)-1-(phenylthio)butan-2-yl]amino]-3-nitrophenyl]sulfonylbenzamide

> <PUBCHEM_IUPAC_NAME_MARKUP>
4-[4-[[2-(4-chlorophenyl)phenyl]methyl]piperazin-1-yl]-<I>N</I>-[4-[[(2<I>R</I>)-4-(dimethylamino)-1-phenylsulfanylbutan-2-yl]amino]-3-nitrophenyl]sulfonylbenzamide

> <PUBCHEM_IUPAC_NAME>
4-[4-[[2-(4-chlorophenyl)phenyl]methyl]piperazin-1-yl]-N-[4-[[(2R)-4-(dimethylamino)-1-phenylsulfanylbutan-2-yl]amino]-3-nitrophenyl]sulfonylbenzamide

> <PUBCHEM_IUPAC_SYSTEMATIC_NAME>
4-[4-[[2-(4-chlorophenyl)phenyl]methyl]piperazin-1-yl]-N-[4-[[(2R)-4-(dimethylamino)-1-phenylsulfanyl-butan-2-yl]amino]-3-nitro-phenyl]sulfonyl-benzamide

> <PUBCHEM_IUPAC_TRADITIONAL_NAME>
4-[4-[2-(4-chlorophenyl)benzyl]piperazino]-N-[4-[[(1R)-3-(dimethylamino)-1-[(phenylthio)methyl]propyl]amino]-3-nitro-phenyl]sulfonyl-benzamide

> <PUBCHEM_IUPAC_INCHI>
InChI=1S/C42H45ClN6O5S2/c1-46(2)23-22-35(30-55-37-9-4-3-5-10-37)44-40-21-20-38(28-41(40)49(51)52)56(53,54)45-42(50)32-14-18-36(19-15-32)48-26-24-47(25-27-48)29-33-8-6-7-11-39(33)31-12-16-34(43)17-13-31/h3-21,28,35,44H,22-27,29-30H2,1-2H3,(H,45,50)/t35-/m1/s1

> <PUBCHEM_IUPAC_INCHIKEY>
HPLNQCPCUACXLM-PGUFJCEWSA-N

> <PUBCHEM_XLOGP3_AA>
9

> <PUBCHEM_EXACT_MASS>
812.258139

> <PUBCHEM_MOLECULAR_FORMULA>
C42H45ClN6O5S2

> <PUBCHEM_MOLECULAR_WEIGHT>
813.4

> <PUBCHEM_OPENEYE_CAN_SMILES>
CN(C)CCC(CSC1=CC=CC=C1)NC2=C(C=C(C=C2)S(=O)(=O)NC(=O)C3=CC=C(C=C3)N4CCN(CC4)CC5=CC=CC=C5C6=CC=C(C=C6)Cl)[N+](=O)[O-]

> <PUBCHEM_OPENEYE_ISO_SMILES>
CN(C)CC[C@H](CSC1=CC=CC=C1)NC2=C(C=C(C=C2)S(=O)(=O)NC(=O)C3=CC=C(C=C3)N4CCN(CC4)CC5=CC=CC=C5C6=CC=C(C=C6)Cl)[N+](=O)[O-]

> <PUBCHEM_CACTVS_TPSA>
165

> <PUBCHEM_MONOISOTOPIC_WEIGHT>
812.258139

> <PUBCHEM_TOTAL_CHARGE>
0

> <PUBCHEM_HEAVY_ATOM_COUNT>
56

> <PUBCHEM_ATOM_DEF_STEREO_COUNT>
1

> <PUBCHEM_ATOM_UDEF_STEREO_COUNT>
0

> <PUBCHEM_BOND_DEF_STEREO_COUNT>
0

> <PUBCHEM_BOND_UDEF_STEREO_COUNT>
0

> <PUBCHEM_ISOTOPIC_ATOM_COUNT>
0

> <PUBCHEM_COMPONENT_COUNT>
1

> <PUBCHEM_CACTVS_TAUTO_COUNT>
-1

> <PUBCHEM_COORDINATE_TYPE>
1
5
255

> <PUBCHEM_BONDANNOTATIONS>
26  11  6
20  23  8
20  24  8
21  22  8
21  25  8
22  32  8
23  27  8
24  28  8
25  33  8
27  30  8
28  30  8
31  39  8
31  40  8
32  36  8
33  36  8
37  42  8
37  43  8
39  48  8
40  49  8
41  44  8
41  45  8
42  44  8
43  45  8
48  50  8
49  50  8
51  52  8
51  53  8
52  54  8
53  55  8
54  56  8
55  56  8

$$$$
4261
  -OEChem-02182015172D

 48 50  0     0  0  0  0  0  0999 V2000
    6.8671    3.2500    0.0000 O   0  0  0  0  0  0  0  0  0  0  0  0
    6.0010   -3.2500    0.0000 O   0  0  0  0  0  0  0  0  0  0  0  0
    5.1350    3.2500    0.0000 O   0  0  0  0  0  0  0  0  0  0  0  0
    6.0010    1.7500    0.0000 N   0  0  0  0  0  0  0  0  0  0  0  0
    4.2690   -3.2500    0.0000 N   0  0  0  0  0  0  0  0  0  0  0  0
    2.5369   -4.2500    0.0000 N   0  0  0  0  0  0  0  0  0  0  0  0
    8.5991    6.2500    0.0000 N   0  0  0  0  0  0  0  0  0  0  0  0
    5.1350    0.2500    0.0000 C   0  0  0  0  0  0  0  0  0  0  0  0
    5.1350    1.2500    0.0000 C   0  0  0  0  0  0  0  0  0  0  0  0
    5.1350   -1.7500    0.0000 C   0  0  0  0  0  0  0  0  0  0  0  0
    4.2690   -0.2500    0.0000 C   0  0  0  0  0  0  0  0  0  0  0  0
    6.0010   -0.2500    0.0000 C   0  0  0  0  0  0  0  0  0  0  0  0
    4.2690   -1.2500    0.0000 C   0  0  0  0  0  0  0  0  0  0  0  0
    6.0010   -1.2500    0.0000 C   0  0  0  0  0  0  0  0  0  0  0  0
    5.1350   -2.7500    0.0000 C   0  0  0  0  0  0  0  0  0  0  0  0
    4.2690   -4.2500    0.0000 C   0  0  0  0  0  0  0  0  0  0  0  0
    3.4030   -4.7500    0.0000 C   0  0  0  0  0  0  0  0  0  0  0  0
    5.1350   -4.7500    0.0000 C   0  0  0  0  0  0  0  0  0  0  0  0
    6.0010    2.7500    0.0000 C   0  0  0  0  0  0  0  0  0  0  0  0
    6.8671    4.2500    0.0000 C   0  0  0  0  0  0  0  0  0  0  0  0
    3.4030   -5.7500    0.0000 C   0  0  0  0  0  0  0  0  0  0  0  0
    7.7331    4.7500    0.0000 C   0  0  0  0  0  0  0  0  0  0  0  0
    5.1350   -5.7500    0.0000 C   0  0  0  0  0  0  0  0  0  0  0  0
    4.2690   -6.2500    0.0000 C   0  0  0  0  0  0  0  0  0  0  0  0
    8.5991    4.2500    0.0000 C   0  0  0  0  0  0  0  0  0  0  0  0
    7.7331    5.7500    0.0000 C   0  0  0  0  0  0  0  0  0  0  0  0
    9.4651    4.7500    0.0000 C   0  0  0  0  0  0  0  0  0  0  0  0
    9.4651    5.7500    0.0000 C   0  0  0  0  0  0  0  0  0  0  0  0
    4.9230    1.8326    0.0000 H   0  0  0  0  0  0  0  0  0  0  0  0
    4.5244    1.1423    0.0000 H   0  0  0  0  0  0  0  0  0  0  0  0
    3.7320    0.0600    0.0000 H   0  0  0  0  0  0  0  0  0  0  0  0
    6.5380    0.0600    0.0000 H   0  0  0  0  0  0  0  0  0  0  0  0
    3.7320   -1.5600    0.0000 H   0  0  0  0  0  0  0  0  0  0  0  0
    6.5380   -1.5600    0.0000 H   0  0  0  0  0  0  0  0  0  0  0  0
    6.5380    1.4400    0.0000 H   0  0  0  0  0  0  0  0  0  0  0  0
    3.7320   -2.9400    0.0000 H   0  0  0  0  0  0  0  0  0  0  0  0
    5.6720   -4.4400    0.0000 H   0  0  0  0  0  0  0  0  0  0  0  0
    6.6550    4.8326    0.0000 H   0  0  0  0  0  0  0  0  0  0  0  0
    6.2565    4.1423    0.0000 H   0  0  0  0  0  0  0  0  0  0  0  0
    2.8660   -6.0600    0.0000 H   0  0  0  0  0  0  0  0  0  0  0  0
    5.6720   -6.0600    0.0000 H   0  0  0  0  0  0  0  0  0  0  0  0
    4.2690   -6.8700    0.0000 H   0  0  0  0  0  0  0  0  0  0  0  0
    8.5991    3.6300    0.0000 H   0  0  0  0  0  0  0  0  0  0  0  0
    2.0000   -4.5600    0.0000 H   0  0  0  0  0  0  0  0  0  0  0  0
    2.5369   -3.6300    0.0000 H   0  0  0  0  0  0  0  0  0  0  0  0
    7.1962    6.0600    0.0000 H   0  0  0  0  0  0  0  0  0  0  0  0
   10.0021    4.4400    0.0000 H   0  0  0  0  0  0  0  0  0  0  0  0
   10.0021    6.0600    0.0000 H   0  0  0  0  0  0  0  0  0  0  0  0
  1 19  1  0  0  0  0
  1 20  1  0  0  0  0
  2 15  2  0  0  0  0
  3 19  2  0  0  0  0
  4  9  1  0  0  0  0
  4 19  1  0  0  0  0
  4 35  1  0  0  0  0
  5 15  1  0  0  0  0
  5 16  1  0  0  0  0
  5 36  1  0  0  0  0
  6 17  1  0  0  0  0
  6 44  1  0  0  0  0
  6 45  1  0  0  0  0
  7 26  1  0  0  0  0
  7 28  2  0  0  0  0
  8  9  1  0  0  0  0
  8 11  2  0  0  0  0
  8 12  1  0  0  0  0
  9 29  1  0  0  0  0
  9 30  1  0  0  0  0
 10 13  2  0  0  0  0
 10 14  1  0  0  0  0
 10 15  1  0  0  0  0
 11 13  1  0  0  0  0
 11 31  1  0  0  0  0
 12 14  2  0  0  0  0
 12 32  1  0  0  0  0
 13 33  1  0  0  0  0
 14 34  1  0  0  0  0
 16 17  1  0  0  0  0
 16 18  2  0  0  0  0
 17 21  2  0  0  0  0
 18 23  1  0  0  0  0
 18 37  1  0  0  0  0
 20 22  1  0  0  0  0
 20 38  1  0  0  0  0
 20 39  1  0  0  0  0
 21 24  1  0  0  0  0
 21 40  1  0  0  0  0
 22 25  1  0  0  0  0
 22 26  2  0  0  0  0
 23 24  2  0  0  0  0
 23 41  1  0  0  0  0
 24 42  1  0  0  0  0
 25 27  2  0  0  0  0
 25 43  1  0  0  0  0
 26 46  1  0  0  0  0
 27 28  1  0  0  0  0
 27 47  1  0  0  0  0
 28 48  1  0  0  0  0
M  END
> <PUBCHEM_COMPOUND_CID>
4261

> <PUBCHEM_COMPOUND_CANONICALIZED>
1

> <PUBCHEM_CACTVS_COMPLEXITY>
508

> <PUBCHEM_CACTVS_HBOND_ACCEPTOR>
5

> <PUBCHEM_CACTVS_HBOND_DONOR>
3

> <PUBCHEM_CACTVS_ROTATABLE_BOND>
7

> <PUBCHEM_CACTVS_SUBSKEYS>
AAADceB7sAAAAAAAAAAAAAAAAAAAAAAAAAA8YIAAAAAAAAAB0AAAHgAQAAAADAjhmgY8yJLIFACoAjV3XACCgCA1AiAI2KE4fNkIZvLAtZmcMQhm1gHI6YeYmAKOQAAAAAAAACCAAAAAAAAAQAAAAAAAAA==

> <PUBCHEM_IUPAC_OPENEYE_NAME>
3-pyridylmethyl N-[[4-[(2-aminophenyl)carbamoyl]phenyl]methyl]carbamate

> <PUBCHEM_IUPAC_CAS_NAME>
N-[[4-[(2-aminoanilino)-oxomethyl]phenyl]methyl]carbamic acid 3-pyridinylmethyl ester

> <PUBCHEM_IUPAC_NAME_MARKUP>
pyridin-3-ylmethyl <I>N</I>-[[4-[(2-aminophenyl)carbamoyl]phenyl]methyl]carbamate

> <PUBCHEM_IUPAC_NAME>
pyridin-3-ylmethyl N-[[4-[(2-aminophenyl)carbamoyl]phenyl]methyl]carbamate

> <PUBCHEM_IUPAC_SYSTEMATIC_NAME>
pyridin-3-ylmethyl N-[[4-[(2-aminophenyl)carbamoyl]phenyl]methyl]carbamate

> <PUBCHEM_IUPAC_TRADITIONAL_NAME>
N-[4-[(2-aminophenyl)carbamoyl]benzyl]carbamic acid 3-pyridylmethyl ester

> <PUBCHEM_IUPAC_INCHI>
InChI=1S/C21H20N4O3/c22-18-5-1-2-6-19(18)25-20(26)17-9-7-15(8-10-17)13-24-21(27)28-14-16-4-3-11-23-12-16/h1-12H,13-14,22H2,(H,24,27)(H,25,26)

> <PUBCHEM_IUPAC_INCHIKEY>
INVTYAOGFAGBOE-UHFFFAOYSA-N

> <PUBCHEM_XLOGP3_AA>
2

> <PUBCHEM_EXACT_MASS>
376.153541

> <PUBCHEM_MOLECULAR_FORMULA>
C21H20N4O3

> <PUBCHEM_MOLECULAR_WEIGHT>
376.4

> <PUBCHEM_OPENEYE_CAN_SMILES>
C1=CC=C(C(=C1)N)NC(=O)C2=CC=C(C=C2)CNC(=O)OCC3=CN=CC=C3

> <PUBCHEM_OPENEYE_ISO_SMILES>
C1=CC=C(C(=C1)N)NC(=O)C2=CC=C(C=C2)CNC(=O)OCC3=CN=CC=C3

> <PUBCHEM_CACTVS_TPSA>
106

> <PUBCHEM_MONOISOTOPIC_WEIGHT>
376.153541

> <PUBCHEM_TOTAL_CHARGE>
0

> <PUBCHEM_HEAVY_ATOM_COUNT>
28

> <PUBCHEM_ATOM_DEF_STEREO_COUNT>
0

> <PUBCHEM_ATOM_UDEF_STEREO_COUNT>
0

> <PUBCHEM_BOND_DEF_STEREO_COUNT>
0

> <PUBCHEM_BOND_UDEF_STEREO_COUNT>
0

> <PUBCHEM_ISOTOPIC_ATOM_COUNT>
0

> <PUBCHEM_COMPONENT_COUNT>
1

> <PUBCHEM_CACTVS_TAUTO_COUNT>
-1

> <PUBCHEM_COORDINATE_TYPE>
1
5
255

> <PUBCHEM_BONDANNOTATIONS>
10  13  8
10  14  8
11  13  8
12  14  8
16  17  8
16  18  8
17  21  8
18  23  8
21  24  8
22  25  8
22  26  8
23  24  8
25  27  8
27  28  8
7  26  8
7  28  8
8  11  8
8  12  8

$$$$
3062316
  -OEChem-02182015172D

 59 62  0     0  0  0  0  0  0999 V2000
    5.4791   -4.5609    0.0000 Cl  0  0  0  0  0  0  0  0  0  0  0  0
    3.6180   -2.0963    0.0000 S   0  0  0  0  0  0  0  0  0  0  0  0
    5.4071    6.9915    0.0000 O   0  0  0  0  0  0  0  0  0  0  0  0
    4.8913   -3.7518    0.0000 O   0  0  0  0  0  0  0  0  0  0  0  0
    4.5411    4.4915    0.0000 N   0  0  0  0  0  0  0  0  0  0  0  0
    4.5411    2.4915    0.0000 N   0  0  0  0  0  0  0  0  0  0  0  0
    5.4071    0.9915    0.0000 N   0  0  0  0  0  0  0  0  0  0  0  0
    4.5411   -0.5085    0.0000 N   0  0  0  0  0  0  0  0  0  0  0  0
    2.8090   -0.5085    0.0000 N   0  0  0  0  0  0  0  0  0  0  0  0
    2.0000   -2.0963    0.0000 N   0  0  0  0  0  0  0  0  0  0  0  0
    3.4901   -4.7699    0.0000 N   0  0  0  0  0  0  0  0  0  0  0  0
    5.4071    3.9915    0.0000 C   0  0  0  0  0  0  0  0  0  0  0  0
    3.6750    3.9915    0.0000 C   0  0  0  0  0  0  0  0  0  0  0  0
    5.4071    2.9915    0.0000 C   0  0  0  0  0  0  0  0  0  0  0  0
    3.6750    2.9915    0.0000 C   0  0  0  0  0  0  0  0  0  0  0  0
    4.5411    5.4915    0.0000 C   0  0  0  0  0  0  0  0  0  0  0  0
    4.5411    1.4915    0.0000 C   0  0  0  0  0  0  0  0  0  0  0  0
    5.4071    5.9915    0.0000 C   0  0  0  0  0  0  0  0  0  0  0  0
    3.6750    0.9915    0.0000 C   0  0  0  0  0  0  0  0  0  0  0  0
    3.6750   -0.0085    0.0000 C   0  0  0  0  0  0  0  0  0  0  0  0
    5.4071   -0.0085    0.0000 C   0  0  0  0  0  0  0  0  0  0  0  0
    6.2731   -0.5085    0.0000 C   0  0  0  0  0  0  0  0  0  0  0  0
    2.8090   -1.5085    0.0000 C   0  0  0  0  0  0  0  0  0  0  0  0
    3.3090   -3.0473    0.0000 C   0  0  0  0  0  0  0  0  0  0  0  0
    4.0778   -5.5789    0.0000 C   0  0  0  0  0  0  0  0  0  0  0  0
    2.3090   -3.0473    0.0000 C   0  0  0  0  0  0  0  0  0  0  0  0
    3.6711   -6.4925    0.0000 C   0  0  0  0  0  0  0  0  0  0  0  0
    3.8968   -3.8564    0.0000 C   0  0  0  0  0  0  0  0  0  0  0  0
    5.0724   -5.4744    0.0000 C   0  0  0  0  0  0  0  0  0  0  0  0
    4.2589   -7.3015    0.0000 C   0  0  0  0  0  0  0  0  0  0  0  0
    2.6766   -6.5970    0.0000 C   0  0  0  0  0  0  0  0  0  0  0  0
    5.6602   -6.2834    0.0000 C   0  0  0  0  0  0  0  0  0  0  0  0
    5.2534   -7.1970    0.0000 C   0  0  0  0  0  0  0  0  0  0  0  0
    6.0177    3.8838    0.0000 H   0  0  0  0  0  0  0  0  0  0  0  0
    5.6192    4.5741    0.0000 H   0  0  0  0  0  0  0  0  0  0  0  0
    3.4630    4.5741    0.0000 H   0  0  0  0  0  0  0  0  0  0  0  0
    3.0645    3.8838    0.0000 H   0  0  0  0  0  0  0  0  0  0  0  0
    5.6192    2.4089    0.0000 H   0  0  0  0  0  0  0  0  0  0  0  0
    6.0177    3.0992    0.0000 H   0  0  0  0  0  0  0  0  0  0  0  0
    3.0645    3.0992    0.0000 H   0  0  0  0  0  0  0  0  0  0  0  0
    3.4630    2.4089    0.0000 H   0  0  0  0  0  0  0  0  0  0  0  0
    4.3290    6.0741    0.0000 H   0  0  0  0  0  0  0  0  0  0  0  0
    3.9305    5.3838    0.0000 H   0  0  0  0  0  0  0  0  0  0  0  0
    5.6192    5.4089    0.0000 H   0  0  0  0  0  0  0  0  0  0  0  0
    6.0177    6.0992    0.0000 H   0  0  0  0  0  0  0  0  0  0  0  0
    3.1381    1.3015    0.0000 H   0  0  0  0  0  0  0  0  0  0  0  0
    5.9440    7.3015    0.0000 H   0  0  0  0  0  0  0  0  0  0  0  0
    2.2721   -0.1985    0.0000 H   0  0  0  0  0  0  0  0  0  0  0  0
    5.9631   -1.0454    0.0000 H   0  0  0  0  0  0  0  0  0  0  0  0
    6.8100   -0.8185    0.0000 H   0  0  0  0  0  0  0  0  0  0  0  0
    6.5831    0.0284    0.0000 H   0  0  0  0  0  0  0  0  0  0  0  0
    1.9446   -3.5489    0.0000 H   0  0  0  0  0  0  0  0  0  0  0  0
    2.8735   -4.8347    0.0000 H   0  0  0  0  0  0  0  0  0  0  0  0
    4.0067   -7.8679    0.0000 H   0  0  0  0  0  0  0  0  0  0  0  0
    2.6118   -5.9804    0.0000 H   0  0  0  0  0  0  0  0  0  0  0  0
    2.0600   -6.6618    0.0000 H   0  0  0  0  0  0  0  0  0  0  0  0
    2.7414   -7.2136    0.0000 H   0  0  0  0  0  0  0  0  0  0  0  0
    6.2768   -6.2186    0.0000 H   0  0  0  0  0  0  0  0  0  0  0  0
    5.6178   -7.6986    0.0000 H   0  0  0  0  0  0  0  0  0  0  0  0
  1 29  1  0  0  0  0
  2 23  1  0  0  0  0
  2 24  1  0  0  0  0
  3 18  1  0  0  0  0
  3 47  1  0  0  0  0
  4 28  2  0  0  0  0
  5 12  1  0  0  0  0
  5 13  1  0  0  0  0
  5 16  1  0  0  0  0
  6 14  1  0  0  0  0
  6 15  1  0  0  0  0
  6 17  1  0  0  0  0
  7 17  2  0  0  0  0
  7 21  1  0  0  0  0
  8 20  1  0  0  0  0
  8 21  2  0  0  0  0
  9 20  1  0  0  0  0
  9 23  1  0  0  0  0
  9 48  1  0  0  0  0
 10 23  2  0  0  0  0
 10 26  1  0  0  0  0
 11 25  1  0  0  0  0
 11 28  1  0  0  0  0
 11 53  1  0  0  0  0
 12 14  1  0  0  0  0
 12 34  1  0  0  0  0
 12 35  1  0  0  0  0
 13 15  1  0  0  0  0
 13 36  1  0  0  0  0
 13 37  1  0  0  0  0
 14 38  1  0  0  0  0
 14 39  1  0  0  0  0
 15 40  1  0  0  0  0
 15 41  1  0  0  0  0
 16 18  1  0  0  0  0
 16 42  1  0  0  0  0
 16 43  1  0  0  0  0
 17 19  1  0  0  0  0
 18 44  1  0  0  0  0
 18 45  1  0  0  0  0
 19 20  2  0  0  0  0
 19 46  1  0  0  0  0
 21 22  1  0  0  0  0
 22 49  1  0  0  0  0
 22 50  1  0  0  0  0
 22 51  1  0  0  0  0
 24 26  2  0  0  0  0
 24 28  1  0  0  0  0
 25 27  2  0  0  0  0
 25 29  1  0  0  0  0
 26 52  1  0  0  0  0
 27 30  1  0  0  0  0
 27 31  1  0  0  0  0
 29 32  2  0  0  0  0
 30 33  2  0  0  0  0
 30 54  1  0  0  0  0
 31 55  1  0  0  0  0
 31 56  1  0  0  0  0
 31 57  1  0  0  0  0
 32 33  1  0  0  0  0
 32 58  1  0  0  0  0
 33 59  1  0  0  0  0
M  END
> <PUBCHEM_COMPOUND_CID>
3062316

> <PUBCHEM_COMPOUND_CANONICALIZED>
1

> <PUBCHEM_CACTVS_COMPLEXITY>
642

> <PUBCHEM_CACTVS_HBOND_ACCEPTOR>
9

> <PUBCHEM_CACTVS_HBOND_DONOR>
3

> <PUBCHEM_CACTVS_ROTATABLE_BOND>
7

> <PUBCHEM_CACTVS_SUBSKEYS>
AAADceB7sABEAAAAAAAAAAAAAAAAAWAAAAA8WIAAAAAAAAAB8AAAHgYQCAAADArh2yY/8ZfIEgisAjd3dACC8Kl1D7lJ2C04ZtiKeCrB29HUJIholALYyOcQgAAOAAAAIAACABAAAABAAAQAIAAAAAAAAA==

> <PUBCHEM_IUPAC_OPENEYE_NAME>
N-(2-chloro-6-methyl-phenyl)-2-[[6-[4-(2-hydroxyethyl)piperazin-1-yl]-2-methyl-pyrimidin-4-yl]amino]thiazole-5-carboxamide

> <PUBCHEM_IUPAC_CAS_NAME>
N-(2-chloro-6-methylphenyl)-2-[[6-[4-(2-hydroxyethyl)-1-piperazinyl]-2-methyl-4-pyrimidinyl]amino]-5-thiazolecarboxamide

> <PUBCHEM_IUPAC_NAME_MARKUP>
<I>N</I>-(2-chloro-6-methylphenyl)-2-[[6-[4-(2-hydroxyethyl)piperazin-1-yl]-2-methylpyrimidin-4-yl]amino]-1,3-thiazole-5-carboxamide

> <PUBCHEM_IUPAC_NAME>
N-(2-chloro-6-methylphenyl)-2-[[6-[4-(2-hydroxyethyl)piperazin-1-yl]-2-methylpyrimidin-4-yl]amino]-1,3-thiazole-5-carboxamide

> <PUBCHEM_IUPAC_SYSTEMATIC_NAME>
N-(2-chloranyl-6-methyl-phenyl)-2-[[6-[4-(2-hydroxyethyl)piperazin-1-yl]-2-methyl-pyrimidin-4-yl]amino]-1,3-thiazole-5-carboxamide

> <PUBCHEM_IUPAC_TRADITIONAL_NAME>
N-(2-chloro-6-methyl-phenyl)-2-[[6-[4-(2-hydroxyethyl)piperazino]-2-methyl-pyrimidin-4-yl]amino]thiazole-5-carboxamide

> <PUBCHEM_IUPAC_INCHI>
InChI=1S/C22H26ClN7O2S/c1-14-4-3-5-16(23)20(14)28-21(32)17-13-24-22(33-17)27-18-12-19(26-15(2)25-18)30-8-6-29(7-9-30)10-11-31/h3-5,12-13,31H,6-11H2,1-2H3,(H,28,32)(H,24,25,26,27)

> <PUBCHEM_IUPAC_INCHIKEY>
ZBNZXTGUTAYRHI-UHFFFAOYSA-N

> <PUBCHEM_XLOGP3_AA>
3.6

> <PUBCHEM_EXACT_MASS>
487.155722

> <PUBCHEM_MOLECULAR_FORMULA>
C22H26ClN7O2S

> <PUBCHEM_MOLECULAR_WEIGHT>
488

> <PUBCHEM_OPENEYE_CAN_SMILES>
CC1=C(C(=CC=C1)Cl)NC(=O)C2=CN=C(S2)NC3=CC(=NC(=N3)C)N4CCN(CC4)CCO

> <PUBCHEM_OPENEYE_ISO_SMILES>
CC1=C(C(=CC=C1)Cl)NC(=O)C2=CN=C(S2)NC3=CC(=NC(=N3)C)N4CCN(CC4)CCO

> <PUBCHEM_CACTVS_TPSA>
135

> <PUBCHEM_MONOISOTOPIC_WEIGHT>
487.155722

> <PUBCHEM_TOTAL_CHARGE>
0

> <PUBCHEM_HEAVY_ATOM_COUNT>
33

> <PUBCHEM_ATOM_DEF_STEREO_COUNT>
0

> <PUBCHEM_ATOM_UDEF_STEREO_COUNT>
0

> <PUBCHEM_BOND_DEF_STEREO_COUNT>
0

> <PUBCHEM_BOND_UDEF_STEREO_COUNT>
0

> <PUBCHEM_ISOTOPIC_ATOM_COUNT>
0

> <PUBCHEM_COMPONENT_COUNT>
1

> <PUBCHEM_CACTVS_TAUTO_COUNT>
-1

> <PUBCHEM_COORDINATE_TYPE>
1
5
255

> <PUBCHEM_BONDANNOTATIONS>
10  23  8
10  26  8
17  19  8
19  20  8
2  23  8
2  24  8
24  26  8
25  27  8
25  29  8
27  30  8
29  32  8
30  33  8
32  33  8
7  17  8
7  21  8
8  20  8
8  21  8

$$$$
24978538
  -OEChem-02182015172D

120126  0     1  0  0  0  0  0999 V2000
   21.9186   -2.8170    0.0000 Cl  0  0  0  0  0  0  0  0  0  0  0  0
   10.6603    1.6830    0.0000 S   0  0  0  0  0  0  0  0  0  0  0  0
    8.9282    4.6830    0.0000 S   0  0  0  0  0  0  0  0  0  0  0  0
    4.5981    3.1830    0.0000 S   0  0  0  0  0  0  0  0  0  0  0  0
    8.9282    6.6830    0.0000 F   0  0  0  0  0  0  0  0  0  0  0  0
    9.9282    5.6830    0.0000 F   0  0  0  0  0  0  0  0  0  0  0  0
    7.9282    5.6830    0.0000 F   0  0  0  0  0  0  0  0  0  0  0  0
    5.4641   -1.3170    0.0000 O   0  0  0  0  0  0  0  0  0  0  0  0
   10.6603   -0.3170    0.0000 O   0  0  0  0  0  0  0  0  0  0  0  0
   10.1603    0.8170    0.0000 O   0  0  0  0  0  0  0  0  0  0  0  0
   11.1603    2.5490    0.0000 O   0  0  0  0  0  0  0  0  0  0  0  0
    9.9282    4.6830    0.0000 O   0  0  0  0  0  0  0  0  0  0  0  0
    7.9282    4.6830    0.0000 O   0  0  0  0  0  0  0  0  0  0  0  0
   16.7224   -2.8170    0.0000 N   0  0  0  0  0  0  0  0  0  0  0  0
   14.9904   -1.8170    0.0000 N   0  0  0  0  0  0  0  0  0  0  0  0
    5.4641    0.6830    0.0000 N   0  0  0  0  0  0  0  0  0  0  0  0
    7.1962    3.6830    0.0000 N   0  0  0  0  0  0  0  0  0  0  0  0
   11.5263    1.1830    0.0000 N   0  0  0  0  0  0  0  0  0  0  0  0
   16.7224   -5.8170    0.0000 C   0  0  0  0  0  0  0  0  0  0  0  0
   16.7224   -4.8170    0.0000 C   0  0  0  0  0  0  0  0  0  0  0  0
   17.5885   -6.3170    0.0000 C   0  0  0  0  0  0  0  0  0  0  0  0
   17.5885   -4.3170    0.0000 C   0  0  0  0  0  0  0  0  0  0  0  0
   18.4545   -5.8170    0.0000 C   0  0  0  0  0  0  0  0  0  0  0  0
   18.4545   -4.8170    0.0000 C   0  0  0  0  0  0  0  0  0  0  0  0
   17.5885   -3.3170    0.0000 C   0  0  0  0  0  0  0  0  0  0  0  0
   16.2224   -6.6830    0.0000 C   0  0  0  0  0  0  0  0  0  0  0  0
   15.7224   -5.8170    0.0000 C   0  0  0  0  0  0  0  0  0  0  0  0
   16.7224   -1.8170    0.0000 C   0  0  0  0  0  0  0  0  0  0  0  0
   15.8564   -3.3170    0.0000 C   0  0  0  0  0  0  0  0  0  0  0  0
   19.3205   -4.3170    0.0000 C   0  0  0  0  0  0  0  0  0  0  0  0
   15.8564   -1.3170    0.0000 C   0  0  0  0  0  0  0  0  0  0  0  0
   14.9904   -2.8170    0.0000 C   0  0  0  0  0  0  0  0  0  0  0  0
   19.3205   -3.3170    0.0000 C   0  0  0  0  0  0  0  0  0  0  0  0
   20.1865   -4.8170    0.0000 C   0  0  0  0  0  0  0  0  0  0  0  0
   14.1244   -1.3170    0.0000 C   0  0  0  0  0  0  0  0  0  0  0  0
   20.1865   -2.8170    0.0000 C   0  0  0  0  0  0  0  0  0  0  0  0
   21.0526   -4.3170    0.0000 C   0  0  0  0  0  0  0  0  0  0  0  0
   14.1244   -0.3170    0.0000 C   0  0  0  0  0  0  0  0  0  0  0  0
   13.2583   -1.8170    0.0000 C   0  0  0  0  0  0  0  0  0  0  0  0
   21.0526   -3.3170    0.0000 C   0  0  0  0  0  0  0  0  0  0  0  0
   13.2583    0.1830    0.0000 C   0  0  0  0  0  0  0  0  0  0  0  0
   12.3923   -1.3170    0.0000 C   0  0  0  0  0  0  0  0  0  0  0  0
   12.3923   -0.3170    0.0000 C   0  0  0  0  0  0  0  0  0  0  0  0
    5.4641    1.6830    0.0000 C   0  0  0  0  0  0  0  0  0  0  0  0
    6.3301    2.1830    0.0000 C   0  0  0  0  0  0  0  0  0  0  0  0
    6.3301    3.1830    0.0000 C   0  0  2  0  0  0  0  0  0  0  0  0
    6.3301    0.1830    0.0000 C   0  0  0  0  0  0  0  0  0  0  0  0
    4.5981    0.1830    0.0000 C   0  0  0  0  0  0  0  0  0  0  0  0
    6.3301   -0.8170    0.0000 C   0  0  0  0  0  0  0  0  0  0  0  0
    4.5981   -0.8170    0.0000 C   0  0  0  0  0  0  0  0  0  0  0  0
    5.4641    3.6830    0.0000 C   0  0  0  0  0  0  0  0  0  0  0  0
   11.5263    0.1830    0.0000 C   0  0  0  0  0  0  0  0  0  0  0  0
    8.0622    3.1830    0.0000 C   0  0  0  0  0  0  0  0  0  0  0  0
    8.9282    3.6830    0.0000 C   0  0  0  0  0  0  0  0  0  0  0  0
    9.7942    2.1830    0.0000 C   0  0  0  0  0  0  0  0  0  0  0  0
    8.0622    2.1830    0.0000 C   0  0  0  0  0  0  0  0  0  0  0  0
    9.7942    3.1830    0.0000 C   0  0  0  0  0  0  0  0  0  0  0  0
    8.9282    1.6830    0.0000 C   0  0  0  0  0  0  0  0  0  0  0  0
    3.7320    3.6830    0.0000 C   0  0  0  0  0  0  0  0  0  0  0  0
    8.9282    5.6830    0.0000 C   0  0  0  0  0  0  0  0  0  0  0  0
    3.7320    4.6830    0.0000 C   0  0  0  0  0  0  0  0  0  0  0  0
    2.8660    3.1830    0.0000 C   0  0  0  0  0  0  0  0  0  0  0  0
    2.8660    5.1830    0.0000 C   0  0  0  0  0  0  0  0  0  0  0  0
    2.0000    3.6830    0.0000 C   0  0  0  0  0  0  0  0  0  0  0  0
    2.0000    4.6830    0.0000 C   0  0  0  0  0  0  0  0  0  0  0  0
   16.5104   -4.2344    0.0000 H   0  0  0  0  0  0  0  0  0  0  0  0
   16.1119   -4.9246    0.0000 H   0  0  0  0  0  0  0  0  0  0  0  0
   17.1899   -6.7919    0.0000 H   0  0  0  0  0  0  0  0  0  0  0  0
   17.9870   -6.7919    0.0000 H   0  0  0  0  0  0  0  0  0  0  0  0
   18.6665   -6.3996    0.0000 H   0  0  0  0  0  0  0  0  0  0  0  0
   19.0651   -5.7093    0.0000 H   0  0  0  0  0  0  0  0  0  0  0  0
   18.1990   -3.4246    0.0000 H   0  0  0  0  0  0  0  0  0  0  0  0
   17.8005   -2.7344    0.0000 H   0  0  0  0  0  0  0  0  0  0  0  0
   15.6855   -6.3730    0.0000 H   0  0  0  0  0  0  0  0  0  0  0  0
   15.9124   -7.2200    0.0000 H   0  0  0  0  0  0  0  0  0  0  0  0
   16.7594   -6.9930    0.0000 H   0  0  0  0  0  0  0  0  0  0  0  0
   15.7224   -5.1970    0.0000 H   0  0  0  0  0  0  0  0  0  0  0  0
   15.1024   -5.8170    0.0000 H   0  0  0  0  0  0  0  0  0  0  0  0
   15.7224   -6.4370    0.0000 H   0  0  0  0  0  0  0  0  0  0  0  0
   17.3330   -1.9246    0.0000 H   0  0  0  0  0  0  0  0  0  0  0  0
   16.9345   -1.2344    0.0000 H   0  0  0  0  0  0  0  0  0  0  0  0
   15.4579   -3.7919    0.0000 H   0  0  0  0  0  0  0  0  0  0  0  0
   16.2549   -3.7919    0.0000 H   0  0  0  0  0  0  0  0  0  0  0  0
   16.2549   -0.8420    0.0000 H   0  0  0  0  0  0  0  0  0  0  0  0
   15.4579   -0.8420    0.0000 H   0  0  0  0  0  0  0  0  0  0  0  0
   14.3798   -2.7093    0.0000 H   0  0  0  0  0  0  0  0  0  0  0  0
   14.7783   -3.3996    0.0000 H   0  0  0  0  0  0  0  0  0  0  0  0
   18.7836   -3.0070    0.0000 H   0  0  0  0  0  0  0  0  0  0  0  0
   20.1865   -5.4370    0.0000 H   0  0  0  0  0  0  0  0  0  0  0  0
   20.1865   -2.1970    0.0000 H   0  0  0  0  0  0  0  0  0  0  0  0
   21.5895   -4.6270    0.0000 H   0  0  0  0  0  0  0  0  0  0  0  0
   14.6613   -0.0070    0.0000 H   0  0  0  0  0  0  0  0  0  0  0  0
   13.2583   -2.4370    0.0000 H   0  0  0  0  0  0  0  0  0  0  0  0
   13.2583    0.8030    0.0000 H   0  0  0  0  0  0  0  0  0  0  0  0
   11.8554   -1.6270    0.0000 H   0  0  0  0  0  0  0  0  0  0  0  0
    5.2520    2.2656    0.0000 H   0  0  0  0  0  0  0  0  0  0  0  0
    4.8535    1.5754    0.0000 H   0  0  0  0  0  0  0  0  0  0  0  0
    6.5422    1.6004    0.0000 H   0  0  0  0  0  0  0  0  0  0  0  0
    6.9407    2.2907    0.0000 H   0  0  0  0  0  0  0  0  0  0  0  0
    6.8671    2.8730    0.0000 H   0  0  0  0  0  0  0  0  0  0  0  0
    6.9407    0.0754    0.0000 H   0  0  0  0  0  0  0  0  0  0  0  0
    6.5422    0.7656    0.0000 H   0  0  0  0  0  0  0  0  0  0  0  0
    4.3860    0.7656    0.0000 H   0  0  0  0  0  0  0  0  0  0  0  0
    3.9875    0.0754    0.0000 H   0  0  0  0  0  0  0  0  0  0  0  0
    6.5422   -1.3996    0.0000 H   0  0  0  0  0  0  0  0  0  0  0  0
    6.9407   -0.7093    0.0000 H   0  0  0  0  0  0  0  0  0  0  0  0
    3.9875   -0.7093    0.0000 H   0  0  0  0  0  0  0  0  0  0  0  0
    4.3860   -1.3996    0.0000 H   0  0  0  0  0  0  0  0  0  0  0  0
    5.8626    4.1580    0.0000 H   0  0  0  0  0  0  0  0  0  0  0  0
    5.0656    4.1580    0.0000 H   0  0  0  0  0  0  0  0  0  0  0  0
    7.1962    4.3030    0.0000 H   0  0  0  0  0  0  0  0  0  0  0  0
   12.0632    1.4930    0.0000 H   0  0  0  0  0  0  0  0  0  0  0  0
    7.5252    1.8730    0.0000 H   0  0  0  0  0  0  0  0  0  0  0  0
   10.3312    3.4930    0.0000 H   0  0  0  0  0  0  0  0  0  0  0  0
    8.9282    1.0630    0.0000 H   0  0  0  0  0  0  0  0  0  0  0  0
    4.2690    4.9930    0.0000 H   0  0  0  0  0  0  0  0  0  0  0  0
    2.8660    2.5630    0.0000 H   0  0  0  0  0  0  0  0  0  0  0  0
    2.8660    5.8030    0.0000 H   0  0  0  0  0  0  0  0  0  0  0  0
    1.4631    3.3730    0.0000 H   0  0  0  0  0  0  0  0  0  0  0  0
    1.4631    4.9930    0.0000 H   0  0  0  0  0  0  0  0  0  0  0  0
  1 40  1  0  0  0  0
  2 10  2  0  0  0  0
  2 11  2  0  0  0  0
  2 18  1  0  0  0  0
  2 55  1  0  0  0  0
  3 12  2  0  0  0  0
  3 13  2  0  0  0  0
  3 54  1  0  0  0  0
  3 60  1  0  0  0  0
  4 51  1  0  0  0  0
  4 59  1  0  0  0  0
  5 60  1  0  0  0  0
  6 60  1  0  0  0  0
  7 60  1  0  0  0  0
  8 49  1  0  0  0  0
  8 50  1  0  0  0  0
  9 52  2  0  0  0  0
 14 25  1  0  0  0  0
 14 28  1  0  0  0  0
 14 29  1  0  0  0  0
 15 31  1  0  0  0  0
 15 32  1  0  0  0  0
 15 35  1  0  0  0  0
 16 44  1  0  0  0  0
 16 47  1  0  0  0  0
 16 48  1  0  0  0  0
 46 17  1  6  0  0  0
 17 53  1  0  0  0  0
 17111  1  0  0  0  0
 18 52  1  0  0  0  0
 18112  1  0  0  0  0
 19 20  1  0  0  0  0
 19 21  1  0  0  0  0
 19 26  1  0  0  0  0
 19 27  1  0  0  0  0
 20 22  1  0  0  0  0
 20 66  1  0  0  0  0
 20 67  1  0  0  0  0
 21 23  1  0  0  0  0
 21 68  1  0  0  0  0
 21 69  1  0  0  0  0
 22 24  2  0  0  0  0
 22 25  1  0  0  0  0
 23 24  1  0  0  0  0
 23 70  1  0  0  0  0
 23 71  1  0  0  0  0
 24 30  1  0  0  0  0
 25 72  1  0  0  0  0
 25 73  1  0  0  0  0
 26 74  1  0  0  0  0
 26 75  1  0  0  0  0
 26 76  1  0  0  0  0
 27 77  1  0  0  0  0
 27 78  1  0  0  0  0
 27 79  1  0  0  0  0
 28 31  1  0  0  0  0
 28 80  1  0  0  0  0
 28 81  1  0  0  0  0
 29 32  1  0  0  0  0
 29 82  1  0  0  0  0
 29 83  1  0  0  0  0
 30 33  2  0  0  0  0
 30 34  1  0  0  0  0
 31 84  1  0  0  0  0
 31 85  1  0  0  0  0
 32 86  1  0  0  0  0
 32 87  1  0  0  0  0
 33 36  1  0  0  0  0
 33 88  1  0  0  0  0
 34 37  2  0  0  0  0
 34 89  1  0  0  0  0
 35 38  2  0  0  0  0
 35 39  1  0  0  0  0
 36 40  2  0  0  0  0
 36 90  1  0  0  0  0
 37 40  1  0  0  0  0
 37 91  1  0  0  0  0
 38 41  1  0  0  0  0
 38 92  1  0  0  0  0
 39 42  2  0  0  0  0
 39 93  1  0  0  0  0
 41 43  2  0  0  0  0
 41 94  1  0  0  0  0
 42 43  1  0  0  0  0
 42 95  1  0  0  0  0
 43 52  1  0  0  0  0
 44 45  1  0  0  0  0
 44 96  1  0  0  0  0
 44 97  1  0  0  0  0
 45 46  1  0  0  0  0
 45 98  1  0  0  0  0
 45 99  1  0  0  0  0
 46 51  1  0  0  0  0
 46100  1  0  0  0  0
 47 49  1  0  0  0  0
 47101  1  0  0  0  0
 47102  1  0  0  0  0
 48 50  1  0  0  0  0
 48103  1  0  0  0  0
 48104  1  0  0  0  0
 49105  1  0  0  0  0
 49106  1  0  0  0  0
 50107  1  0  0  0  0
 50108  1  0  0  0  0
 51109  1  0  0  0  0
 51110  1  0  0  0  0
 53 54  2  0  0  0  0
 53 56  1  0  0  0  0
 54 57  1  0  0  0  0
 55 57  2  0  0  0  0
 55 58  1  0  0  0  0
 56 58  2  0  0  0  0
 56113  1  0  0  0  0
 57114  1  0  0  0  0
 58115  1  0  0  0  0
 59 61  2  0  0  0  0
 59 62  1  0  0  0  0
 61 63  1  0  0  0  0
 61116  1  0  0  0  0
 62 64  2  0  0  0  0
 62117  1  0  0  0  0
 63 65  2  0  0  0  0
 63118  1  0  0  0  0
 64 65  1  0  0  0  0
 64119  1  0  0  0  0
 65120  1  0  0  0  0
M  END
> <PUBCHEM_COMPOUND_CID>
24978538

> <PUBCHEM_COMPOUND_CANONICALIZED>
1

> <PUBCHEM_CACTVS_COMPLEXITY>
1800

> <PUBCHEM_CACTVS_HBOND_ACCEPTOR>
14

> <PUBCHEM_CACTVS_HBOND_DONOR>
2

> <PUBCHEM_CACTVS_ROTATABLE_BOND>
16

> <PUBCHEM_CACTVS_SUBSKEYS>
AAADcfB/uYBkAAAAAAAAAAAAAAAAAAAAAAA8eMGCAAAAAAABVAAAHwYQQAAADirl2DaywYPABAqIAiVSUHDCABAlDxAIiJ0IZsgKYDLh15GXIQhgkAD4yYcYicCfDAQAAEAAAQAYCAAAgAACAAAAAAAAAA==

> <PUBCHEM_IUPAC_OPENEYE_NAME>
4-[4-[[2-(4-chlorophenyl)-5,5-dimethyl-cyclohexen-1-yl]methyl]piperazin-1-yl]-N-[4-[[(1R)-3-morpholino-1-(phenylsulfanylmethyl)propyl]amino]-3-(trifluoromethylsulfonyl)phenyl]sulfonyl-benzamide

> <PUBCHEM_IUPAC_CAS_NAME>
4-[4-[[2-(4-chlorophenyl)-5,5-dimethyl-1-cyclohexenyl]methyl]-1-piperazinyl]-N-[4-[[(2R)-4-(4-morpholinyl)-1-(phenylthio)butan-2-yl]amino]-3-(trifluoromethylsulfonyl)phenyl]sulfonylbenzamide

> <PUBCHEM_IUPAC_NAME_MARKUP>
4-[4-[[2-(4-chlorophenyl)-5,5-dimethylcyclohexen-1-yl]methyl]piperazin-1-yl]-<I>N</I>-[4-[[(2<I>R</I>)-4-morpholin-4-yl-1-phenylsulfanylbutan-2-yl]amino]-3-(trifluoromethylsulfonyl)phenyl]sulfonylbenzamide

> <PUBCHEM_IUPAC_NAME>
4-[4-[[2-(4-chlorophenyl)-5,5-dimethylcyclohexen-1-yl]methyl]piperazin-1-yl]-N-[4-[[(2R)-4-morpholin-4-yl-1-phenylsulfanylbutan-2-yl]amino]-3-(trifluoromethylsulfonyl)phenyl]sulfonylbenzamide

> <PUBCHEM_IUPAC_SYSTEMATIC_NAME>
4-[4-[[2-(4-chlorophenyl)-5,5-dimethyl-cyclohexen-1-yl]methyl]piperazin-1-yl]-N-[4-[[(2R)-4-morpholin-4-yl-1-phenylsulfanyl-butan-2-yl]amino]-3-(trifluoromethylsulfonyl)phenyl]sulfonyl-benzamide

> <PUBCHEM_IUPAC_TRADITIONAL_NAME>
4-[4-[[2-(4-chlorophenyl)-5,5-dimethyl-cyclohexen-1-yl]methyl]piperazino]-N-[4-[[(1R)-3-morpholino-1-[(phenylthio)methyl]propyl]amino]-3-triflyl-phenyl]sulfonyl-benzamide

> <PUBCHEM_IUPAC_INCHI>
InChI=1S/C47H55ClF3N5O6S3/c1-46(2)20-18-42(34-8-12-37(48)13-9-34)36(31-46)32-55-22-24-56(25-23-55)39-14-10-35(11-15-39)45(57)53-65(60,61)41-16-17-43(44(30-41)64(58,59)47(49,50)51)52-38(19-21-54-26-28-62-29-27-54)33-63-40-6-4-3-5-7-40/h3-17,30,38,52H,18-29,31-33H2,1-2H3,(H,53,57)/t38-/m1/s1

> <PUBCHEM_IUPAC_INCHIKEY>
JLYAXFNOILIKPP-KXQOOQHDSA-N

> <PUBCHEM_XLOGP3_AA>
9.6

> <PUBCHEM_EXACT_MASS>
973.29551

> <PUBCHEM_MOLECULAR_FORMULA>
C47H55ClF3N5O6S3

> <PUBCHEM_MOLECULAR_WEIGHT>
974.6

> <PUBCHEM_OPENEYE_CAN_SMILES>
CC1(CCC(=C(C1)CN2CCN(CC2)C3=CC=C(C=C3)C(=O)NS(=O)(=O)C4=CC(=C(C=C4)NC(CCN5CCOCC5)CSC6=CC=CC=C6)S(=O)(=O)C(F)(F)F)C7=CC=C(C=C7)Cl)C

> <PUBCHEM_OPENEYE_ISO_SMILES>
CC1(CCC(=C(C1)CN2CCN(CC2)C3=CC=C(C=C3)C(=O)NS(=O)(=O)C4=CC(=C(C=C4)N[C@H](CCN5CCOCC5)CSC6=CC=CC=C6)S(=O)(=O)C(F)(F)F)C7=CC=C(C=C7)Cl)C

> <PUBCHEM_CACTVS_TPSA>
170

> <PUBCHEM_MONOISOTOPIC_WEIGHT>
973.29551

> <PUBCHEM_TOTAL_CHARGE>
0

> <PUBCHEM_HEAVY_ATOM_COUNT>
65

> <PUBCHEM_ATOM_DEF_STEREO_COUNT>
1

> <PUBCHEM_ATOM_UDEF_STEREO_COUNT>
0

> <PUBCHEM_BOND_DEF_STEREO_COUNT>
0

> <PUBCHEM_BOND_UDEF_STEREO_COUNT>
0

> <PUBCHEM_ISOTOPIC_ATOM_COUNT>
0

> <PUBCHEM_COMPONENT_COUNT>
1

> <PUBCHEM_CACTVS_TAUTO_COUNT>
-1

> <PUBCHEM_COORDINATE_TYPE>
1
5
255

> <PUBCHEM_BONDANNOTATIONS>
46  17  6
30  33  8
30  34  8
33  36  8
34  37  8
35  38  8
35  39  8
36  40  8
37  40  8
38  41  8
39  42  8
41  43  8
42  43  8
53  54  8
53  56  8
54  57  8
55  57  8
55  58  8
56  58  8
59  61  8
59  62  8
61  63  8
62  64  8
63  65  8
64  65  8

$$$$
208908
  -OEChem-02182015172D

 66 70  0     0  0  0  0  0  0999 V2000
   12.3832   -2.2696    0.0000 Cl  0  0  0  0  0  0  0  0  0  0  0  0
    2.9136   -2.3673    0.0000 S   0  0  0  0  0  0  0  0  0  0  0  0
   16.6957   -3.8195    0.0000 F   0  0  0  0  0  0  0  0  0  0  0  0
    7.1010    0.7903    0.0000 O   0  0  0  0  0  0  0  0  0  0  0  0
    2.0000   -1.9605    0.0000 O   0  0  0  0  0  0  0  0  0  0  0  0
    3.8271   -2.7740    0.0000 O   0  0  0  0  0  0  0  0  0  0  0  0
   14.1267   -1.2896    0.0000 O   0  0  0  0  0  0  0  0  0  0  0  0
    4.7215   -0.4356    0.0000 N   0  0  0  0  0  0  0  0  0  0  0  0
   10.6859    0.7503    0.0000 N   0  0  0  0  0  0  0  0  0  0  0  0
   10.6975    3.8195    0.0000 N   0  0  0  0  0  0  0  0  0  0  0  0
   11.6036    2.2640    0.0000 N   0  0  0  0  0  0  0  0  0  0  0  0
    4.3148   -1.3492    0.0000 C   0  0  0  0  0  0  0  0  0  0  0  0
    3.3203   -1.4537    0.0000 C   0  0  0  0  0  0  0  0  0  0  0  0
    5.7161   -0.3311    0.0000 C   0  0  0  0  0  0  0  0  0  0  0  0
    6.1228    0.5824    0.0000 C   0  0  0  0  0  0  0  0  0  0  0  0
    8.0715    2.2849    0.0000 C   0  0  0  0  0  0  0  0  0  0  0  0
    7.2055    1.7849    0.0000 C   0  0  0  0  0  0  0  0  0  0  0  0
    9.8036    2.2849    0.0000 C   0  0  0  0  0  0  0  0  0  0  0  0
    8.9375    1.7849    0.0000 C   0  0  0  0  0  0  0  0  0  0  0  0
    5.6228    1.4485    0.0000 C   0  0  0  0  0  0  0  0  0  0  0  0
    6.2919    2.1916    0.0000 C   0  0  0  0  0  0  0  0  0  0  0  0
    9.8036    3.2849    0.0000 C   0  0  0  0  0  0  0  0  0  0  0  0
    8.0715    3.2849    0.0000 C   0  0  0  0  0  0  0  0  0  0  0  0
   10.6975    1.7502    0.0000 C   0  0  0  0  0  0  0  0  0  0  0  0
    2.5068   -3.2808    0.0000 C   0  0  0  0  0  0  0  0  0  0  0  0
    8.9375    3.7849    0.0000 C   0  0  0  0  0  0  0  0  0  0  0  0
   11.5461    0.2403    0.0000 C   0  0  0  0  0  0  0  0  0  0  0  0
   11.6036    3.3057    0.0000 C   0  0  0  0  0  0  0  0  0  0  0  0
   11.5346   -0.7596    0.0000 C   0  0  0  0  0  0  0  0  0  0  0  0
   12.4179    0.7302    0.0000 C   0  0  0  0  0  0  0  0  0  0  0  0
   13.2665   -0.7797    0.0000 C   0  0  0  0  0  0  0  0  0  0  0  0
   12.3947   -1.2696    0.0000 C   0  0  0  0  0  0  0  0  0  0  0  0
   13.2781    0.2203    0.0000 C   0  0  0  0  0  0  0  0  0  0  0  0
   14.9984   -0.7997    0.0000 C   0  0  0  0  0  0  0  0  0  0  0  0
   15.8586   -1.3097    0.0000 C   0  0  0  0  0  0  0  0  0  0  0  0
   15.8470   -2.3096    0.0000 C   0  0  0  0  0  0  0  0  0  0  0  0
   16.7304   -0.8197    0.0000 C   0  0  0  0  0  0  0  0  0  0  0  0
   16.7072   -2.8196    0.0000 C   0  0  0  0  0  0  0  0  0  0  0  0
   17.5905   -1.3297    0.0000 C   0  0  0  0  0  0  0  0  0  0  0  0
   17.5790   -2.3296    0.0000 C   0  0  0  0  0  0  0  0  0  0  0  0
    4.2716   -1.9677    0.0000 H   0  0  0  0  0  0  0  0  0  0  0  0
    4.9164   -1.4992    0.0000 H   0  0  0  0  0  0  0  0  0  0  0  0
    3.3635   -0.8352    0.0000 H   0  0  0  0  0  0  0  0  0  0  0  0
    2.7187   -1.3037    0.0000 H   0  0  0  0  0  0  0  0  0  0  0  0
    5.6728   -0.9496    0.0000 H   0  0  0  0  0  0  0  0  0  0  0  0
    6.3177   -0.4811    0.0000 H   0  0  0  0  0  0  0  0  0  0  0  0
    4.3571    0.0659    0.0000 H   0  0  0  0  0  0  0  0  0  0  0  0
    8.9375    1.1649    0.0000 H   0  0  0  0  0  0  0  0  0  0  0  0
    5.0062    1.5133    0.0000 H   0  0  0  0  0  0  0  0  0  0  0  0
    6.1630    2.7980    0.0000 H   0  0  0  0  0  0  0  0  0  0  0  0
    7.5346    3.5949    0.0000 H   0  0  0  0  0  0  0  0  0  0  0  0
    1.9404   -3.0286    0.0000 H   0  0  0  0  0  0  0  0  0  0  0  0
    2.2546   -3.8472    0.0000 H   0  0  0  0  0  0  0  0  0  0  0  0
    3.0732   -3.5330    0.0000 H   0  0  0  0  0  0  0  0  0  0  0  0
    8.9375    4.4049    0.0000 H   0  0  0  0  0  0  0  0  0  0  0  0
   10.1454    0.4465    0.0000 H   0  0  0  0  0  0  0  0  0  0  0  0
   10.9941   -1.0634    0.0000 H   0  0  0  0  0  0  0  0  0  0  0  0
   12.4250    1.3502    0.0000 H   0  0  0  0  0  0  0  0  0  0  0  0
   12.1393    3.6178    0.0000 H   0  0  0  0  0  0  0  0  0  0  0  0
   13.8185    0.5240    0.0000 H   0  0  0  0  0  0  0  0  0  0  0  0
   15.4024   -0.3294    0.0000 H   0  0  0  0  0  0  0  0  0  0  0  0
   14.6054   -0.3202    0.0000 H   0  0  0  0  0  0  0  0  0  0  0  0
   15.3066   -2.6134    0.0000 H   0  0  0  0  0  0  0  0  0  0  0  0
   16.7375   -0.1998    0.0000 H   0  0  0  0  0  0  0  0  0  0  0  0
   18.1310   -1.0259    0.0000 H   0  0  0  0  0  0  0  0  0  0  0  0
   18.1123   -2.6458    0.0000 H   0  0  0  0  0  0  0  0  0  0  0  0
  1 32  1  0  0  0  0
  2  5  2  0  0  0  0
  2  6  2  0  0  0  0
  2 13  1  0  0  0  0
  2 25  1  0  0  0  0
  3 38  1  0  0  0  0
  4 15  1  0  0  0  0
  4 17  1  0  0  0  0
  7 31  1  0  0  0  0
  7 34  1  0  0  0  0
  8 12  1  0  0  0  0
  8 14  1  0  0  0  0
  8 47  1  0  0  0  0
  9 24  1  0  0  0  0
  9 27  1  0  0  0  0
  9 56  1  0  0  0  0
 10 22  1  0  0  0  0
 10 28  2  0  0  0  0
 11 24  2  0  0  0  0
 11 28  1  0  0  0  0
 12 13  1  0  0  0  0
 12 41  1  0  0  0  0
 12 42  1  0  0  0  0
 13 43  1  0  0  0  0
 13 44  1  0  0  0  0
 14 15  1  0  0  0  0
 14 45  1  0  0  0  0
 14 46  1  0  0  0  0
 15 20  2  0  0  0  0
 16 17  1  0  0  0  0
 16 19  2  0  0  0  0
 16 23  1  0  0  0  0
 17 21  2  0  0  0  0
 18 19  1  0  0  0  0
 18 22  2  0  0  0  0
 18 24  1  0  0  0  0
 19 48  1  0  0  0  0
 20 21  1  0  0  0  0
 20 49  1  0  0  0  0
 21 50  1  0  0  0  0
 22 26  1  0  0  0  0
 23 26  2  0  0  0  0
 23 51  1  0  0  0  0
 25 52  1  0  0  0  0
 25 53  1  0  0  0  0
 25 54  1  0  0  0  0
 26 55  1  0  0  0  0
 27 29  2  0  0  0  0
 27 30  1  0  0  0  0
 28 59  1  0  0  0  0
 29 32  1  0  0  0  0
 29 57  1  0  0  0  0
 30 33  2  0  0  0  0
 30 58  1  0  0  0  0
 31 32  2  0  0  0  0
 31 33  1  0  0  0  0
 33 60  1  0  0  0  0
 34 35  1  0  0  0  0
 34 61  1  0  0  0  0
 34 62  1  0  0  0  0
 35 36  2  0  0  0  0
 35 37  1  0  0  0  0
 36 38  1  0  0  0  0
 36 63  1  0  0  0  0
 37 39  2  0  0  0  0
 37 64  1  0  0  0  0
 38 40  2  0  0  0  0
 39 40  1  0  0  0  0
 39 65  1  0  0  0  0
 40 66  1  0  0  0  0
M  END
> <PUBCHEM_COMPOUND_CID>
208908

> <PUBCHEM_COMPOUND_CANONICALIZED>
1

> <PUBCHEM_CACTVS_COMPLEXITY>
898

> <PUBCHEM_CACTVS_HBOND_ACCEPTOR>
9

> <PUBCHEM_CACTVS_HBOND_DONOR>
2

> <PUBCHEM_CACTVS_ROTATABLE_BOND>
11

> <PUBCHEM_CACTVS_SUBSKEYS>
AAADceB7uQBEAAAAAAAAAAAAAAAAASAAAAA8YMEAAAAAAACx/AAAHwYQAAAADA7l3i639vbIFEqoA6ZzZHDCiCk1J/AJ2KG+b9iOLvPF//uHPSjs0BPY6ae42fOeCEACAAICCAAQgAQABAQQAAAAAAAAAA==

> <PUBCHEM_IUPAC_OPENEYE_NAME>
N-[3-chloro-4-[(3-fluorophenyl)methoxy]phenyl]-6-[5-[(2-methylsulfonylethylamino)methyl]-2-furyl]quinazolin-4-amine

> <PUBCHEM_IUPAC_CAS_NAME>
N-[3-chloro-4-[(3-fluorophenyl)methoxy]phenyl]-6-[5-[(2-methylsulfonylethylamino)methyl]-2-furanyl]-4-quinazolinamine

> <PUBCHEM_IUPAC_NAME_MARKUP>
<I>N</I>-[3-chloro-4-[(3-fluorophenyl)methoxy]phenyl]-6-[5-[(2-methylsulfonylethylamino)methyl]furan-2-yl]quinazolin-4-amine

> <PUBCHEM_IUPAC_NAME>
N-[3-chloro-4-[(3-fluorophenyl)methoxy]phenyl]-6-[5-[(2-methylsulfonylethylamino)methyl]furan-2-yl]quinazolin-4-amine

> <PUBCHEM_IUPAC_SYSTEMATIC_NAME>
N-[3-chloranyl-4-[(3-fluorophenyl)methoxy]phenyl]-6-[5-[(2-methylsulfonylethylamino)methyl]furan-2-yl]quinazolin-4-amine

> <PUBCHEM_IUPAC_TRADITIONAL_NAME>
[5-[4-[3-chloro-4-(3-fluorobenzyl)oxy-anilino]quinazolin-6-yl]-2-furyl]methyl-(2-mesylethyl)amine

> <PUBCHEM_IUPAC_INCHI>
InChI=1S/C29H26ClFN4O4S/c1-40(36,37)12-11-32-16-23-7-10-27(39-23)20-5-8-26-24(14-20)29(34-18-33-26)35-22-6-9-28(25(30)15-22)38-17-19-3-2-4-21(31)13-19/h2-10,13-15,18,32H,11-12,16-17H2,1H3,(H,33,34,35)

> <PUBCHEM_IUPAC_INCHIKEY>
BCFGMOOMADDAQU-UHFFFAOYSA-N

> <PUBCHEM_XLOGP3_AA>
5.1

> <PUBCHEM_EXACT_MASS>
580.134732

> <PUBCHEM_MOLECULAR_FORMULA>
C29H26ClFN4O4S

> <PUBCHEM_MOLECULAR_WEIGHT>
581.1

> <PUBCHEM_OPENEYE_CAN_SMILES>
CS(=O)(=O)CCNCC1=CC=C(O1)C2=CC3=C(C=C2)N=CN=C3NC4=CC(=C(C=C4)OCC5=CC(=CC=C5)F)Cl

> <PUBCHEM_OPENEYE_ISO_SMILES>
CS(=O)(=O)CCNCC1=CC=C(O1)C2=CC3=C(C=C2)N=CN=C3NC4=CC(=C(C=C4)OCC5=CC(=CC=C5)F)Cl

> <PUBCHEM_CACTVS_TPSA>
115

> <PUBCHEM_MONOISOTOPIC_WEIGHT>
580.134732

> <PUBCHEM_TOTAL_CHARGE>
0

> <PUBCHEM_HEAVY_ATOM_COUNT>
40

> <PUBCHEM_ATOM_DEF_STEREO_COUNT>
0

> <PUBCHEM_ATOM_UDEF_STEREO_COUNT>
0

> <PUBCHEM_BOND_DEF_STEREO_COUNT>
0

> <PUBCHEM_BOND_UDEF_STEREO_COUNT>
0

> <PUBCHEM_ISOTOPIC_ATOM_COUNT>
0

> <PUBCHEM_COMPONENT_COUNT>
1

> <PUBCHEM_CACTVS_TAUTO_COUNT>
-1

> <PUBCHEM_COORDINATE_TYPE>
1
5
255

> <PUBCHEM_BONDANNOTATIONS>
10  22  8
10  28  8
11  24  8
11  28  8
15  20  8
16  19  8
16  23  8
17  21  8
18  19  8
18  22  8
18  24  8
20  21  8
22  26  8
23  26  8
27  29  8
27  30  8
29  32  8
30  33  8
31  32  8
31  33  8
35  36  8
35  37  8
36  38  8
37  39  8
38  40  8
39  40  8
4  15  8
4  17  8

$$$$
24866313
  -OEChem-02182015172D

 77 83  0     1  0  0  0  0  0999 V2000
   14.9817   -1.6311    0.0000 O   0  0  0  0  0  0  0  0  0  0  0  0
   11.3574    1.8233    0.0000 O   0  0  0  0  0  0  0  0  0  0  0  0
   12.5330    0.2053    0.0000 N   0  0  3  0  0  0  0  0  0  0  0  0
    9.9562    0.8052    0.0000 N   0  0  0  0  0  0  0  0  0  0  0  0
    7.9671    0.5962    0.0000 N   0  0  0  0  0  0  0  0  0  0  0  0
   15.8477   -0.1311    0.0000 N   0  0  0  0  0  0  0  0  0  0  0  0
   19.3920   -1.9358    0.0000 N   0  0  0  0  0  0  0  0  0  0  0  0
   19.9756   -1.1311    0.0000 N   0  0  0  0  0  0  0  0  0  0  0  0
    3.4013    0.9871    0.0000 N   0  0  0  0  0  0  0  0  0  0  0  0
    3.5823   -0.7355    0.0000 N   0  0  0  0  0  0  0  0  0  0  0  0
   20.3240    2.5252    0.0000 N   0  0  0  0  0  0  0  0  0  0  0  0
   14.1157   -0.1311    0.0000 C   0  0  1  0  0  0  0  0  0  0  0  0
   13.2021   -0.5379    0.0000 C   0  0  0  0  0  0  0  0  0  0  0  0
   14.0112    0.8634    0.0000 C   0  0  0  0  0  0  0  0  0  0  0  0
   13.0330    1.0713    0.0000 C   0  0  0  0  0  0  0  0  0  0  0  0
   11.5385    0.1008    0.0000 C   0  0  0  0  0  0  0  0  0  0  0  0
   14.9817   -0.6311    0.0000 C   0  0  0  0  0  0  0  0  0  0  0  0
   10.9507    0.9098    0.0000 C   0  0  0  0  0  0  0  0  0  0  0  0
    9.3684    1.6143    0.0000 C   0  0  0  0  0  0  0  0  0  0  0  0
    9.5494   -0.1083    0.0000 C   0  0  0  0  0  0  0  0  0  0  0  0
    8.3739    1.5097    0.0000 C   0  0  0  0  0  0  0  0  0  0  0  0
    8.5549   -0.2128    0.0000 C   0  0  0  0  0  0  0  0  0  0  0  0
    6.9726    0.4917    0.0000 C   0  0  0  0  0  0  0  0  0  0  0  0
   16.7138   -0.6311    0.0000 C   0  0  0  0  0  0  0  0  0  0  0  0
    6.3848    1.3007    0.0000 C   0  0  0  0  0  0  0  0  0  0  0  0
    6.5659   -0.4219    0.0000 C   0  0  0  0  0  0  0  0  0  0  0  0
   17.5798   -0.1311    0.0000 C   0  0  0  0  0  0  0  0  0  0  0  0
   16.7138   -1.6311    0.0000 C   0  0  0  0  0  0  0  0  0  0  0  0
   18.4458   -0.6311    0.0000 C   0  0  0  0  0  0  0  0  0  0  0  0
    5.3903    1.1962    0.0000 C   0  0  0  0  0  0  0  0  0  0  0  0
    5.5714   -0.5264    0.0000 C   0  0  0  0  0  0  0  0  0  0  0  0
    4.9836    0.2826    0.0000 C   0  0  0  0  0  0  0  0  0  0  0  0
   18.4458   -1.6311    0.0000 C   0  0  0  0  0  0  0  0  0  0  0  0
   17.5798   -2.1311    0.0000 C   0  0  0  0  0  0  0  0  0  0  0  0
   19.3920   -0.3264    0.0000 C   0  0  0  0  0  0  0  0  0  0  0  0
    3.9890    0.1781    0.0000 C   0  0  0  0  0  0  0  0  0  0  0  0
   19.7027    0.6241    0.0000 C   0  0  0  0  0  0  0  0  0  0  0  0
   19.0348    1.3684    0.0000 C   0  0  0  0  0  0  0  0  0  0  0  0
   20.6812    0.8304    0.0000 C   0  0  0  0  0  0  0  0  0  0  0  0
   19.3455    2.3190    0.0000 C   0  0  0  0  0  0  0  0  0  0  0  0
   20.9919    1.7809    0.0000 C   0  0  0  0  0  0  0  0  0  0  0  0
    2.4067    0.8826    0.0000 C   0  0  0  0  0  0  0  0  0  0  0  0
    2.5878   -0.8400    0.0000 C   0  0  0  0  0  0  0  0  0  0  0  0
    2.0000   -0.0310    0.0000 C   0  0  0  0  0  0  0  0  0  0  0  0
   14.6357    0.2066    0.0000 H   0  0  0  0  0  0  0  0  0  0  0  0
   12.7005   -0.9023    0.0000 H   0  0  0  0  0  0  0  0  0  0  0  0
   13.5121   -1.0748    0.0000 H   0  0  0  0  0  0  0  0  0  0  0  0
   14.6312    0.8634    0.0000 H   0  0  0  0  0  0  0  0  0  0  0  0
   14.0760    1.4800    0.0000 H   0  0  0  0  0  0  0  0  0  0  0  0
   13.2246    1.6610    0.0000 H   0  0  0  0  0  0  0  0  0  0  0  0
   12.4666    1.3235    0.0000 H   0  0  0  0  0  0  0  0  0  0  0  0
   10.9812   -0.1710    0.0000 H   0  0  0  0  0  0  0  0  0  0  0  0
   11.7094   -0.4952    0.0000 H   0  0  0  0  0  0  0  0  0  0  0  0
    9.9256    1.8861    0.0000 H   0  0  0  0  0  0  0  0  0  0  0  0
    9.1975    2.2102    0.0000 H   0  0  0  0  0  0  0  0  0  0  0  0
    9.5062   -0.7268    0.0000 H   0  0  0  0  0  0  0  0  0  0  0  0
   10.1510   -0.2583    0.0000 H   0  0  0  0  0  0  0  0  0  0  0  0
    8.4171    2.1282    0.0000 H   0  0  0  0  0  0  0  0  0  0  0  0
    7.7723    1.6597    0.0000 H   0  0  0  0  0  0  0  0  0  0  0  0
    7.9977   -0.4846    0.0000 H   0  0  0  0  0  0  0  0  0  0  0  0
    8.7258   -0.8088    0.0000 H   0  0  0  0  0  0  0  0  0  0  0  0
   15.8477    0.4889    0.0000 H   0  0  0  0  0  0  0  0  0  0  0  0
    6.6370    1.8671    0.0000 H   0  0  0  0  0  0  0  0  0  0  0  0
    6.9303   -0.9235    0.0000 H   0  0  0  0  0  0  0  0  0  0  0  0
   17.5798    0.4889    0.0000 H   0  0  0  0  0  0  0  0  0  0  0  0
   16.1768   -1.9411    0.0000 H   0  0  0  0  0  0  0  0  0  0  0  0
    5.0259    1.6977    0.0000 H   0  0  0  0  0  0  0  0  0  0  0  0
    5.3192   -1.0928    0.0000 H   0  0  0  0  0  0  0  0  0  0  0  0
   17.5798   -2.7511    0.0000 H   0  0  0  0  0  0  0  0  0  0  0  0
   19.5846   -2.5252    0.0000 H   0  0  0  0  0  0  0  0  0  0  0  0
   18.4282    1.2406    0.0000 H   0  0  0  0  0  0  0  0  0  0  0  0
   21.0953    0.3689    0.0000 H   0  0  0  0  0  0  0  0  0  0  0  0
   18.9314    2.7804    0.0000 H   0  0  0  0  0  0  0  0  0  0  0  0
   21.5985    1.9087    0.0000 H   0  0  0  0  0  0  0  0  0  0  0  0
    2.0423    1.3842    0.0000 H   0  0  0  0  0  0  0  0  0  0  0  0
    2.3356   -1.4064    0.0000 H   0  0  0  0  0  0  0  0  0  0  0  0
    1.3834   -0.0958    0.0000 H   0  0  0  0  0  0  0  0  0  0  0  0
  1 17  2  0  0  0  0
  2 18  2  0  0  0  0
  3 13  1  0  0  0  0
  3 15  1  0  0  0  0
  3 16  1  0  0  0  0
  4 18  1  0  0  0  0
  4 19  1  0  0  0  0
  4 20  1  0  0  0  0
  5 21  1  0  0  0  0
  5 22  1  0  0  0  0
  5 23  1  0  0  0  0
  6 17  1  0  0  0  0
  6 24  1  0  0  0  0
  6 62  1  0  0  0  0
  7  8  1  0  0  0  0
  7 33  1  0  0  0  0
  7 70  1  0  0  0  0
  8 35  2  0  0  0  0
  9 36  2  0  0  0  0
  9 42  1  0  0  0  0
 10 36  1  0  0  0  0
 10 43  2  0  0  0  0
 11 40  2  0  0  0  0
 11 41  1  0  0  0  0
 12 13  1  0  0  0  0
 12 14  1  0  0  0  0
 12 17  1  1  0  0  0
 12 45  1  0  0  0  0
 13 46  1  0  0  0  0
 13 47  1  0  0  0  0
 14 15  1  0  0  0  0
 14 48  1  0  0  0  0
 14 49  1  0  0  0  0
 15 50  1  0  0  0  0
 15 51  1  0  0  0  0
 16 18  1  0  0  0  0
 16 52  1  0  0  0  0
 16 53  1  0  0  0  0
 19 21  1  0  0  0  0
 19 54  1  0  0  0  0
 19 55  1  0  0  0  0
 20 22  1  0  0  0  0
 20 56  1  0  0  0  0
 20 57  1  0  0  0  0
 21 58  1  0  0  0  0
 21 59  1  0  0  0  0
 22 60  1  0  0  0  0
 22 61  1  0  0  0  0
 23 25  2  0  0  0  0
 23 26  1  0  0  0  0
 24 27  2  0  0  0  0
 24 28  1  0  0  0  0
 25 30  1  0  0  0  0
 25 63  1  0  0  0  0
 26 31  2  0  0  0  0
 26 64  1  0  0  0  0
 27 29  1  0  0  0  0
 27 65  1  0  0  0  0
 28 34  2  0  0  0  0
 28 66  1  0  0  0  0
 29 33  2  0  0  0  0
 29 35  1  0  0  0  0
 30 32  2  0  0  0  0
 30 67  1  0  0  0  0
 31 32  1  0  0  0  0
 31 68  1  0  0  0  0
 32 36  1  0  0  0  0
 33 34  1  0  0  0  0
 34 69  1  0  0  0  0
 35 37  1  0  0  0  0
 37 38  2  0  0  0  0
 37 39  1  0  0  0  0
 38 40  1  0  0  0  0
 38 71  1  0  0  0  0
 39 41  2  0  0  0  0
 39 72  1  0  0  0  0
 40 73  1  0  0  0  0
 41 74  1  0  0  0  0
 42 44  2  0  0  0  0
 42 75  1  0  0  0  0
 43 44  1  0  0  0  0
 43 76  1  0  0  0  0
 44 77  1  0  0  0  0
M  END
> <PUBCHEM_COMPOUND_CID>
24866313

> <PUBCHEM_COMPOUND_CANONICALIZED>
1

> <PUBCHEM_CACTVS_COMPLEXITY>
957

> <PUBCHEM_CACTVS_HBOND_ACCEPTOR>
8

> <PUBCHEM_CACTVS_HBOND_DONOR>
2

> <PUBCHEM_CACTVS_ROTATABLE_BOND>
7

> <PUBCHEM_CACTVS_SUBSKEYS>
AAADcfB/8AAAAAAAAAAAAAAAAAAAAWLAAAA8eLECAAAAAFgB/gAAHgAYAAAADQjBnwQ90PfrEACqAzd3dACShCkxAqAZ+SG4ZJiIaPrA2fGUpAhongLIyCcUgMAOCACAQAACAAAQAQCAAAQAAAAAAAAAAA==

> <PUBCHEM_IUPAC_OPENEYE_NAME>
(3R)-1-[2-oxo-2-[4-(4-pyrimidin-2-ylphenyl)piperazin-1-yl]ethyl]-N-[3-(4-pyridyl)-1H-indazol-5-yl]pyrrolidine-3-carboxamide

> <PUBCHEM_IUPAC_CAS_NAME>
(3R)-1-[2-oxo-2-[4-[4-(2-pyrimidinyl)phenyl]-1-piperazinyl]ethyl]-N-(3-pyridin-4-yl-1H-indazol-5-yl)-3-pyrrolidinecarboxamide

> <PUBCHEM_IUPAC_NAME_MARKUP>
(3<I>R</I>)-1-[2-oxo-2-[4-(4-pyrimidin-2-ylphenyl)piperazin-1-yl]ethyl]-<I>N</I>-(3-pyridin-4-yl-1<I>H</I>-indazol-5-yl)pyrrolidine-3-carboxamide

> <PUBCHEM_IUPAC_NAME>
(3R)-1-[2-oxo-2-[4-(4-pyrimidin-2-ylphenyl)piperazin-1-yl]ethyl]-N-(3-pyridin-4-yl-1H-indazol-5-yl)pyrrolidine-3-carboxamide

> <PUBCHEM_IUPAC_SYSTEMATIC_NAME>
(3R)-1-[2-oxidanylidene-2-[4-(4-pyrimidin-2-ylphenyl)piperazin-1-yl]ethyl]-N-(3-pyridin-4-yl-1H-indazol-5-yl)pyrrolidine-3-carboxamide

> <PUBCHEM_IUPAC_TRADITIONAL_NAME>
(3R)-1-[2-keto-2-[4-[4-(2-pyrimidyl)phenyl]piperazino]ethyl]-N-[3-(4-pyridyl)-1H-indazol-5-yl]pyrrolidine-3-carboxamide

> <PUBCHEM_IUPAC_INCHI>
InChI=1S/C33H33N9O2/c43-30(42-18-16-41(17-19-42)27-5-2-24(3-6-27)32-35-11-1-12-36-32)22-40-15-10-25(21-40)33(44)37-26-4-7-29-28(20-26)31(39-38-29)23-8-13-34-14-9-23/h1-9,11-14,20,25H,10,15-19,21-22H2,(H,37,44)(H,38,39)/t25-/m1/s1

> <PUBCHEM_IUPAC_INCHIKEY>
HDAJDNHIBCDLQF-RUZDIDTESA-N

> <PUBCHEM_XLOGP3_AA>
2.5

> <PUBCHEM_EXACT_MASS>
587.275721

> <PUBCHEM_MOLECULAR_FORMULA>
C33H33N9O2

> <PUBCHEM_MOLECULAR_WEIGHT>
587.7

> <PUBCHEM_OPENEYE_CAN_SMILES>
C1CN(CC1C(=O)NC2=CC3=C(C=C2)NN=C3C4=CC=NC=C4)CC(=O)N5CCN(CC5)C6=CC=C(C=C6)C7=NC=CC=N7

> <PUBCHEM_OPENEYE_ISO_SMILES>
C1CN(C[C@@H]1C(=O)NC2=CC3=C(C=C2)NN=C3C4=CC=NC=C4)CC(=O)N5CCN(CC5)C6=CC=C(C=C6)C7=NC=CC=N7

> <PUBCHEM_CACTVS_TPSA>
123

> <PUBCHEM_MONOISOTOPIC_WEIGHT>
587.275721

> <PUBCHEM_TOTAL_CHARGE>
0

> <PUBCHEM_HEAVY_ATOM_COUNT>
44

> <PUBCHEM_ATOM_DEF_STEREO_COUNT>
1

> <PUBCHEM_ATOM_UDEF_STEREO_COUNT>
0

> <PUBCHEM_BOND_DEF_STEREO_COUNT>
0

> <PUBCHEM_BOND_UDEF_STEREO_COUNT>
0

> <PUBCHEM_ISOTOPIC_ATOM_COUNT>
0

> <PUBCHEM_COMPONENT_COUNT>
1

> <PUBCHEM_CACTVS_TAUTO_COUNT>
-1

> <PUBCHEM_COORDINATE_TYPE>
1
5
255

> <PUBCHEM_BONDANNOTATIONS>
10  36  8
10  43  8
11  40  8
11  41  8
12  17  5
23  25  8
23  26  8
24  27  8
24  28  8
25  30  8
26  31  8
27  29  8
28  34  8
29  33  8
29  35  8
30  32  8
31  32  8
33  34  8
37  38  8
37  39  8
38  40  8
39  41  8
42  44  8
43  44  8
7  33  8
7  8  8
8  35  8
9  36  8
9  42  8

$$$$
44137675
  -OEChem-02182015172D

 54 57  0     1  0  0  0  0  0999 V2000
   10.6532    0.2278    0.0000 O   0  0  0  0  0  0  0  0  0  0  0  0
    7.1892   -3.7722    0.0000 O   0  0  0  0  0  0  0  0  0  0  0  0
    2.0000    2.3023    0.0000 O   0  0  0  0  0  0  0  0  0  0  0  0
    2.8486    0.7924    0.0000 O   0  0  0  0  0  0  0  0  0  0  0  0
    8.9212   -0.7722    0.0000 N   0  0  0  0  0  0  0  0  0  0  0  0
    6.3231   -2.2722    0.0000 N   0  0  0  0  0  0  0  0  0  0  0  0
    7.1892   -0.7722    0.0000 N   0  0  0  0  0  0  0  0  0  0  0  0
    4.5806    0.7724    0.0000 N   0  0  0  0  0  0  0  0  0  0  0  0
    5.4292   -0.7375    0.0000 C   0  0  0  0  0  0  0  0  0  0  0  0
    5.4407    0.2624    0.0000 C   0  0  1  0  0  0  0  0  0  0  0  0
    8.9212    0.2278    0.0000 C   0  0  0  0  0  0  0  0  0  0  0  0
    9.7872   -1.2722    0.0000 C   0  0  0  0  0  0  0  0  0  0  0  0
    6.3231   -1.2722    0.0000 C   0  0  0  0  0  0  0  0  0  0  0  0
    8.0552   -1.2722    0.0000 C   0  0  0  0  0  0  0  0  0  0  0  0
    9.7872    0.7278    0.0000 C   0  0  0  0  0  0  0  0  0  0  0  0
   10.6532   -0.7722    0.0000 C   0  0  0  0  0  0  0  0  0  0  0  0
    4.5231   -1.2514    0.0000 C   0  0  0  0  0  0  0  0  0  0  0  0
    4.5231   -2.2930    0.0000 C   0  0  0  0  0  0  0  0  0  0  0  0
    8.0552   -2.2722    0.0000 C   0  0  0  0  0  0  0  0  0  0  0  0
    5.4292   -2.8068    0.0000 C   0  0  0  0  0  0  0  0  0  0  0  0
    7.1892   -2.7722    0.0000 C   0  0  0  0  0  0  0  0  0  0  0  0
    6.3125    0.7524    0.0000 C   0  0  0  0  0  0  0  0  0  0  0  0
    4.5921    1.7723    0.0000 C   0  0  0  0  0  0  0  0  0  0  0  0
    3.6590   -2.7963    0.0000 C   0  0  0  0  0  0  0  0  0  0  0  0
    3.7319    2.2823    0.0000 C   0  0  0  0  0  0  0  0  0  0  0  0
    5.4639    2.2623    0.0000 C   0  0  0  0  0  0  0  0  0  0  0  0
    3.7435    3.2822    0.0000 C   0  0  0  0  0  0  0  0  0  0  0  0
    5.4754    3.2622    0.0000 C   0  0  0  0  0  0  0  0  0  0  0  0
    4.6152    3.7722    0.0000 C   0  0  0  0  0  0  0  0  0  0  0  0
    2.8602    1.7924    0.0000 C   0  0  0  0  0  0  0  0  0  0  0  0
    5.4479    0.8824    0.0000 H   0  0  0  0  0  0  0  0  0  0  0  0
    8.7092    0.8104    0.0000 H   0  0  0  0  0  0  0  0  0  0  0  0
    8.3106    0.1202    0.0000 H   0  0  0  0  0  0  0  0  0  0  0  0
    9.3887   -1.7471    0.0000 H   0  0  0  0  0  0  0  0  0  0  0  0
   10.1858   -1.7471    0.0000 H   0  0  0  0  0  0  0  0  0  0  0  0
   10.1858    1.2028    0.0000 H   0  0  0  0  0  0  0  0  0  0  0  0
    9.3887    1.2028    0.0000 H   0  0  0  0  0  0  0  0  0  0  0  0
   10.8653   -1.3548    0.0000 H   0  0  0  0  0  0  0  0  0  0  0  0
   11.2638   -0.6645    0.0000 H   0  0  0  0  0  0  0  0  0  0  0  0
    3.9874   -0.9393    0.0000 H   0  0  0  0  0  0  0  0  0  0  0  0
    8.5921   -2.5822    0.0000 H   0  0  0  0  0  0  0  0  0  0  0  0
    5.4364   -3.4268    0.0000 H   0  0  0  0  0  0  0  0  0  0  0  0
    4.0401    0.4686    0.0000 H   0  0  0  0  0  0  0  0  0  0  0  0
    6.6163    0.2119    0.0000 H   0  0  0  0  0  0  0  0  0  0  0  0
    6.8530    1.0561    0.0000 H   0  0  0  0  0  0  0  0  0  0  0  0
    6.0087    1.2928    0.0000 H   0  0  0  0  0  0  0  0  0  0  0  0
    3.3470   -2.2606    0.0000 H   0  0  0  0  0  0  0  0  0  0  0  0
    3.1233   -3.1084    0.0000 H   0  0  0  0  0  0  0  0  0  0  0  0
    3.9711   -3.3321    0.0000 H   0  0  0  0  0  0  0  0  0  0  0  0
    5.9972    1.9461    0.0000 H   0  0  0  0  0  0  0  0  0  0  0  0
    3.2102    3.5984    0.0000 H   0  0  0  0  0  0  0  0  0  0  0  0
    6.0159    3.5660    0.0000 H   0  0  0  0  0  0  0  0  0  0  0  0
    4.6224    4.3922    0.0000 H   0  0  0  0  0  0  0  0  0  0  0  0
    2.0072    2.9223    0.0000 H   0  0  0  0  0  0  0  0  0  0  0  0
  1 15  1  0  0  0  0
  1 16  1  0  0  0  0
  2 21  2  0  0  0  0
  3 30  1  0  0  0  0
  3 54  1  0  0  0  0
  4 30  2  0  0  0  0
  5 11  1  0  0  0  0
  5 12  1  0  0  0  0
  5 14  1  0  0  0  0
  6 13  1  0  0  0  0
  6 20  1  0  0  0  0
  6 21  1  0  0  0  0
  7 13  2  0  0  0  0
  7 14  1  0  0  0  0
 10  8  1  6  0  0  0
  8 23  1  0  0  0  0
  8 43  1  0  0  0  0
  9 10  1  0  0  0  0
  9 13  1  0  0  0  0
  9 17  2  0  0  0  0
 10 22  1  0  0  0  0
 10 31  1  0  0  0  0
 11 15  1  0  0  0  0
 11 32  1  0  0  0  0
 11 33  1  0  0  0  0
 12 16  1  0  0  0  0
 12 34  1  0  0  0  0
 12 35  1  0  0  0  0
 14 19  2  0  0  0  0
 15 36  1  0  0  0  0
 15 37  1  0  0  0  0
 16 38  1  0  0  0  0
 16 39  1  0  0  0  0
 17 18  1  0  0  0  0
 17 40  1  0  0  0  0
 18 20  2  0  0  0  0
 18 24  1  0  0  0  0
 19 21  1  0  0  0  0
 19 41  1  0  0  0  0
 20 42  1  0  0  0  0
 22 44  1  0  0  0  0
 22 45  1  0  0  0  0
 22 46  1  0  0  0  0
 23 25  1  0  0  0  0
 23 26  2  0  0  0  0
 24 47  1  0  0  0  0
 24 48  1  0  0  0  0
 24 49  1  0  0  0  0
 25 27  2  0  0  0  0
 25 30  1  0  0  0  0
 26 28  1  0  0  0  0
 26 50  1  0  0  0  0
 27 29  1  0  0  0  0
 27 51  1  0  0  0  0
 28 29  2  0  0  0  0
 28 52  1  0  0  0  0
 29 53  1  0  0  0  0
M  END
> <PUBCHEM_COMPOUND_CID>
44137675

> <PUBCHEM_COMPOUND_CANONICALIZED>
1

> <PUBCHEM_CACTVS_COMPLEXITY>
838

> <PUBCHEM_CACTVS_HBOND_ACCEPTOR>
7

> <PUBCHEM_CACTVS_HBOND_DONOR>
2

> <PUBCHEM_CACTVS_ROTATABLE_BOND>
5

> <PUBCHEM_CACTVS_SUBSKEYS>
AAADceB7uAAAAAAAAAAAAAAAAAAAAAAAAAA8QIEAAAAAAACBAAAAHgAQCAAADCjhmAYzyIPABgCoAif2fACCAAElAgAJiIEobNiKJjrA3ZGHcYhm1gPY2ceYyCCOAAAAAAACAAAAAAAAAAQAAAAAAAAAAA==

> <PUBCHEM_IUPAC_OPENEYE_NAME>
2-[[(1R)-1-(7-methyl-2-morpholino-4-oxo-pyrido[1,2-a]pyrimidin-9-yl)ethyl]amino]benzoic acid

> <PUBCHEM_IUPAC_CAS_NAME>
2-[[(1R)-1-[7-methyl-2-(4-morpholinyl)-4-oxo-9-pyrido[1,2-a]pyrimidinyl]ethyl]amino]benzoic acid

> <PUBCHEM_IUPAC_NAME_MARKUP>
2-[[(1<I>R</I>)-1-(7-methyl-2-morpholin-4-yl-4-oxopyrido[1,2-a]pyrimidin-9-yl)ethyl]amino]benzoic acid

> <PUBCHEM_IUPAC_NAME>
2-[[(1R)-1-(7-methyl-2-morpholin-4-yl-4-oxopyrido[1,2-a]pyrimidin-9-yl)ethyl]amino]benzoic acid

> <PUBCHEM_IUPAC_SYSTEMATIC_NAME>
2-[[(1R)-1-(7-methyl-2-morpholin-4-yl-4-oxidanylidene-pyrido[1,2-a]pyrimidin-9-yl)ethyl]amino]benzoic acid

> <PUBCHEM_IUPAC_TRADITIONAL_NAME>
2-[[(1R)-1-(4-keto-7-methyl-2-morpholino-pyrido[1,2-a]pyrimidin-9-yl)ethyl]amino]benzoic acid

> <PUBCHEM_IUPAC_INCHI>
InChI=1S/C22H24N4O4/c1-14-11-17(15(2)23-18-6-4-3-5-16(18)22(28)29)21-24-19(12-20(27)26(21)13-14)25-7-9-30-10-8-25/h3-6,11-13,15,23H,7-10H2,1-2H3,(H,28,29)/t15-/m1/s1

> <PUBCHEM_IUPAC_INCHIKEY>
IRTDIKMSKMREGO-OAHLLOKOSA-N

> <PUBCHEM_XLOGP3_AA>
2

> <PUBCHEM_EXACT_MASS>
408.179755

> <PUBCHEM_MOLECULAR_FORMULA>
C22H24N4O4

> <PUBCHEM_MOLECULAR_WEIGHT>
408.4

> <PUBCHEM_OPENEYE_CAN_SMILES>
CC1=CN2C(=O)C=C(N=C2C(=C1)C(C)NC3=CC=CC=C3C(=O)O)N4CCOCC4

> <PUBCHEM_OPENEYE_ISO_SMILES>
CC1=CN2C(=O)C=C(N=C2C(=C1)[C@@H](C)NC3=CC=CC=C3C(=O)O)N4CCOCC4

> <PUBCHEM_CACTVS_TPSA>
94.5

> <PUBCHEM_MONOISOTOPIC_WEIGHT>
408.179755

> <PUBCHEM_TOTAL_CHARGE>
0

> <PUBCHEM_HEAVY_ATOM_COUNT>
30

> <PUBCHEM_ATOM_DEF_STEREO_COUNT>
1

> <PUBCHEM_ATOM_UDEF_STEREO_COUNT>
0

> <PUBCHEM_BOND_DEF_STEREO_COUNT>
0

> <PUBCHEM_BOND_UDEF_STEREO_COUNT>
0

> <PUBCHEM_ISOTOPIC_ATOM_COUNT>
0

> <PUBCHEM_COMPONENT_COUNT>
1

> <PUBCHEM_CACTVS_TAUTO_COUNT>
-1

> <PUBCHEM_COORDINATE_TYPE>
1
5
255

> <PUBCHEM_BONDANNOTATIONS>
14  19  8
17  18  8
18  20  8
19  21  8
23  25  8
23  26  8
25  27  8
26  28  8
27  29  8
28  29  8
6  13  8
6  20  8
6  21  8
7  13  8
7  14  8
10  8  6
9  13  8
9  17  8

$$$$
91663328
  -OEChem-02182015172D

 60 64  0     1  0  0  0  0  0999 V2000
   11.5263    4.2500    0.0000 O   0  0  0  0  0  0  0  0  0  0  0  0
    4.5981   -1.7500    0.0000 N   0  0  0  0  0  0  0  0  0  0  0  0
    2.8660   -2.7500    0.0000 N   0  0  0  0  0  0  0  0  0  0  0  0
    5.4641   -0.2500    0.0000 N   0  0  0  0  0  0  0  0  0  0  0  0
   13.3385    1.4453    0.0000 N   0  0  0  0  0  0  0  0  0  0  0  0
   11.5263    1.2500    0.0000 N   0  0  0  0  0  0  0  0  0  0  0  0
   10.6603    2.7500    0.0000 N   0  0  0  0  0  0  0  0  0  0  0  0
    2.8660   -1.7500    0.0000 C   0  0  1  0  0  0  0  0  0  0  0  0
    3.7320   -3.2500    0.0000 C   0  0  2  0  0  0  0  0  0  0  0  0
    3.7320   -1.2500    0.0000 C   0  0  0  0  0  0  0  0  0  0  0  0
    4.5981   -2.7500    0.0000 C   0  0  0  0  0  0  0  0  0  0  0  0
    2.0000   -1.2500    0.0000 C   0  0  0  0  0  0  0  0  0  0  0  0
    3.7320   -4.2500    0.0000 C   0  0  0  0  0  0  0  0  0  0  0  0
    5.4641   -1.2500    0.0000 C   0  0  0  0  0  0  0  0  0  0  0  0
    6.3301   -1.7500    0.0000 C   0  0  0  0  0  0  0  0  0  0  0  0
    7.1962   -1.2500    0.0000 C   0  0  0  0  0  0  0  0  0  0  0  0
    7.1962   -0.2500    0.0000 C   0  0  0  0  0  0  0  0  0  0  0  0
    6.3301    0.2500    0.0000 C   0  0  0  0  0  0  0  0  0  0  0  0
    8.0622    0.2500    0.0000 C   0  0  0  0  0  0  0  0  0  0  0  0
    8.0622   -1.7500    0.0000 C   0  0  0  0  0  0  0  0  0  0  0  0
    8.0622    1.2500    0.0000 C   0  0  0  0  0  0  0  0  0  0  0  0
    8.9282   -0.2500    0.0000 C   0  0  0  0  0  0  0  0  0  0  0  0
    9.7942    1.2500    0.0000 C   0  0  0  0  0  0  0  0  0  0  0  0
   12.3923    1.7500    0.0000 C   0  0  0  0  0  0  0  0  0  0  0  0
   10.6603    1.7500    0.0000 C   0  0  0  0  0  0  0  0  0  0  0  0
    8.9282    1.7500    0.0000 C   0  0  0  0  0  0  0  0  0  0  0  0
    9.7942    0.2500    0.0000 C   0  0  0  0  0  0  0  0  0  0  0  0
   12.3923    2.7500    0.0000 C   0  0  0  0  0  0  0  0  0  0  0  0
   13.3385    3.0547    0.0000 C   0  0  0  0  0  0  0  0  0  0  0  0
   13.9221    2.2500    0.0000 C   0  0  0  0  0  0  0  0  0  0  0  0
   11.5263    3.2500    0.0000 C   0  0  0  0  0  0  0  0  0  0  0  0
   13.6492    0.4947    0.0000 C   0  0  0  0  0  0  0  0  0  0  0  0
    2.3291   -2.0600    0.0000 H   0  0  0  0  0  0  0  0  0  0  0  0
    3.1951   -3.5600    0.0000 H   0  0  0  0  0  0  0  0  0  0  0  0
    4.1306   -0.7751    0.0000 H   0  0  0  0  0  0  0  0  0  0  0  0
    3.3335   -0.7751    0.0000 H   0  0  0  0  0  0  0  0  0  0  0  0
    4.8101   -3.3326    0.0000 H   0  0  0  0  0  0  0  0  0  0  0  0
    5.2087   -2.6423    0.0000 H   0  0  0  0  0  0  0  0  0  0  0  0
    2.3291   -3.0600    0.0000 H   0  0  0  0  0  0  0  0  0  0  0  0
    2.3100   -0.7131    0.0000 H   0  0  0  0  0  0  0  0  0  0  0  0
    1.4631   -0.9400    0.0000 H   0  0  0  0  0  0  0  0  0  0  0  0
    1.6900   -1.7869    0.0000 H   0  0  0  0  0  0  0  0  0  0  0  0
    3.1120   -4.2500    0.0000 H   0  0  0  0  0  0  0  0  0  0  0  0
    3.7320   -4.8700    0.0000 H   0  0  0  0  0  0  0  0  0  0  0  0
    4.3520   -4.2500    0.0000 H   0  0  0  0  0  0  0  0  0  0  0  0
    6.3301   -2.3700    0.0000 H   0  0  0  0  0  0  0  0  0  0  0  0
    6.3301    0.8700    0.0000 H   0  0  0  0  0  0  0  0  0  0  0  0
    7.7522   -2.2869    0.0000 H   0  0  0  0  0  0  0  0  0  0  0  0
    8.5991   -2.0600    0.0000 H   0  0  0  0  0  0  0  0  0  0  0  0
    8.3722   -1.2131    0.0000 H   0  0  0  0  0  0  0  0  0  0  0  0
    7.5252    1.5600    0.0000 H   0  0  0  0  0  0  0  0  0  0  0  0
    8.9282   -0.8700    0.0000 H   0  0  0  0  0  0  0  0  0  0  0  0
    8.9282    2.3700    0.0000 H   0  0  0  0  0  0  0  0  0  0  0  0
   10.3312   -0.0600    0.0000 H   0  0  0  0  0  0  0  0  0  0  0  0
   11.5263    0.6300    0.0000 H   0  0  0  0  0  0  0  0  0  0  0  0
   13.5311    3.6440    0.0000 H   0  0  0  0  0  0  0  0  0  0  0  0
   14.5421    2.2500    0.0000 H   0  0  0  0  0  0  0  0  0  0  0  0
   13.0599    0.3021    0.0000 H   0  0  0  0  0  0  0  0  0  0  0  0
   13.8418   -0.0946    0.0000 H   0  0  0  0  0  0  0  0  0  0  0  0
   14.2385    0.6874    0.0000 H   0  0  0  0  0  0  0  0  0  0  0  0
  1 31  2  0  0  0  0
  2 10  1  0  0  0  0
  2 11  1  0  0  0  0
  2 14  1  0  0  0  0
  3  8  1  0  0  0  0
  3  9  1  0  0  0  0
  3 39  1  0  0  0  0
  4 14  2  0  0  0  0
  4 18  1  0  0  0  0
  5 24  1  0  0  0  0
  5 30  1  0  0  0  0
  5 32  1  0  0  0  0
  6 24  1  0  0  0  0
  6 25  1  0  0  0  0
  6 55  1  0  0  0  0
  7 25  2  0  0  0  0
  7 31  1  0  0  0  0
  8 10  1  0  0  0  0
  8 12  1  6  0  0  0
  8 33  1  0  0  0  0
  9 11  1  0  0  0  0
  9 13  1  6  0  0  0
  9 34  1  0  0  0  0
 10 35  1  0  0  0  0
 10 36  1  0  0  0  0
 11 37  1  0  0  0  0
 11 38  1  0  0  0  0
 12 40  1  0  0  0  0
 12 41  1  0  0  0  0
 12 42  1  0  0  0  0
 13 43  1  0  0  0  0
 13 44  1  0  0  0  0
 13 45  1  0  0  0  0
 14 15  1  0  0  0  0
 15 16  2  0  0  0  0
 15 46  1  0  0  0  0
 16 17  1  0  0  0  0
 16 20  1  0  0  0  0
 17 18  2  0  0  0  0
 17 19  1  0  0  0  0
 18 47  1  0  0  0  0
 19 21  2  0  0  0  0
 19 22  1  0  0  0  0
 20 48  1  0  0  0  0
 20 49  1  0  0  0  0
 20 50  1  0  0  0  0
 21 26  1  0  0  0  0
 21 51  1  0  0  0  0
 22 27  2  0  0  0  0
 22 52  1  0  0  0  0
 23 25  1  0  0  0  0
 23 26  2  0  0  0  0
 23 27  1  0  0  0  0
 24 28  2  0  0  0  0
 26 53  1  0  0  0  0
 27 54  1  0  0  0  0
 28 29  1  0  0  0  0
 28 31  1  0  0  0  0
 29 30  2  0  0  0  0
 29 56  1  0  0  0  0
 30 57  1  0  0  0  0
 32 58  1  0  0  0  0
 32 59  1  0  0  0  0
 32 60  1  0  0  0  0
M  END
> <PUBCHEM_COMPOUND_CID>
91663328

> <PUBCHEM_COMPOUND_CANONICALIZED>
1

> <PUBCHEM_CACTVS_COMPLEXITY>
709

> <PUBCHEM_CACTVS_HBOND_ACCEPTOR>
4

> <PUBCHEM_CACTVS_HBOND_DONOR>
2

> <PUBCHEM_CACTVS_ROTATABLE_BOND>
3

> <PUBCHEM_CACTVS_SUBSKEYS>
AAADceB7oAAAAAAAAAAAAAAAAAAAAWAAAAA8WIEAAAAAAEAB8AAAHgAQAAAADCjBmgQ/sJPMEACoAjN3dACCgCk1AiAJ2KE4ZNiIYPrA3ZGUIYhokALIyecUgMAOwAAAAAAAAACAAAAAAAAAAAAAAAAAAA==

> <PUBCHEM_IUPAC_OPENEYE_NAME>
2-[4-[6-[(3S,5R)-3,5-dimethylpiperazin-1-yl]-4-methyl-3-pyridyl]phenyl]-7-methyl-1H-pyrrolo[2,3-d]pyrimidin-4-one

> <PUBCHEM_IUPAC_CAS_NAME>
2-[4-[6-[(3S,5R)-3,5-dimethyl-1-piperazinyl]-4-methyl-3-pyridinyl]phenyl]-7-methyl-1H-pyrrolo[2,3-d]pyrimidin-4-one

> <PUBCHEM_IUPAC_NAME_MARKUP>
2-[4-[6-[(3<I>S</I>,5<I>R</I>)-3,5-dimethylpiperazin-1-yl]-4-methylpyridin-3-yl]phenyl]-7-methyl-1<I>H</I>-pyrrolo[2,3-d]pyrimidin-4-one

> <PUBCHEM_IUPAC_NAME>
2-[4-[6-[(3S,5R)-3,5-dimethylpiperazin-1-yl]-4-methylpyridin-3-yl]phenyl]-7-methyl-1H-pyrrolo[2,3-d]pyrimidin-4-one

> <PUBCHEM_IUPAC_SYSTEMATIC_NAME>
2-[4-[6-[(3S,5R)-3,5-dimethylpiperazin-1-yl]-4-methyl-pyridin-3-yl]phenyl]-7-methyl-1H-pyrrolo[2,3-d]pyrimidin-4-one

> <PUBCHEM_IUPAC_TRADITIONAL_NAME>
2-[4-[6-[(3S,5R)-3,5-dimethylpiperazino]-4-methyl-3-pyridyl]phenyl]-7-methyl-1H-pyrrolo[2,3-d]pyrimidin-4-one

> <PUBCHEM_IUPAC_INCHI>
InChI=1S/C25H28N6O/c1-15-11-22(31-13-16(2)27-17(3)14-31)26-12-21(15)18-5-7-19(8-6-18)23-28-24-20(25(32)29-23)9-10-30(24)4/h5-12,16-17,27H,13-14H2,1-4H3,(H,28,29,32)/t16-,17+

> <PUBCHEM_IUPAC_INCHIKEY>
WCPTUQOMNJBIET-CALCHBBNSA-N

> <PUBCHEM_XLOGP3_AA>
3

> <PUBCHEM_EXACT_MASS>
428.23246

> <PUBCHEM_MOLECULAR_FORMULA>
C25H28N6O

> <PUBCHEM_MOLECULAR_WEIGHT>
428.5

> <PUBCHEM_OPENEYE_CAN_SMILES>
CC1CN(CC(N1)C)C2=NC=C(C(=C2)C)C3=CC=C(C=C3)C4=NC(=O)C5=C(N4)N(C=C5)C

> <PUBCHEM_OPENEYE_ISO_SMILES>
C[C@@H]1CN(C[C@@H](N1)C)C2=NC=C(C(=C2)C)C3=CC=C(C=C3)C4=NC(=O)C5=C(N4)N(C=C5)C

> <PUBCHEM_CACTVS_TPSA>
74.6

> <PUBCHEM_MONOISOTOPIC_WEIGHT>
428.23246

> <PUBCHEM_TOTAL_CHARGE>
0

> <PUBCHEM_HEAVY_ATOM_COUNT>
32

> <PUBCHEM_ATOM_DEF_STEREO_COUNT>
2

> <PUBCHEM_ATOM_UDEF_STEREO_COUNT>
0

> <PUBCHEM_BOND_DEF_STEREO_COUNT>
0

> <PUBCHEM_BOND_UDEF_STEREO_COUNT>
0

> <PUBCHEM_ISOTOPIC_ATOM_COUNT>
0

> <PUBCHEM_COMPONENT_COUNT>
1

> <PUBCHEM_CACTVS_TAUTO_COUNT>
-1

> <PUBCHEM_COORDINATE_TYPE>
1
5
255

> <PUBCHEM_BONDANNOTATIONS>
14  15  8
15  16  8
16  17  8
17  18  8
19  21  8
19  22  8
21  26  8
22  27  8
23  26  8
23  27  8
24  28  8
28  29  8
28  31  8
29  30  8
4  14  8
4  18  8
5  24  8
5  30  8
6  24  8
6  25  8
7  25  8
7  31  8
8  12  6
9  13  6

$$$$
123631
  -OEChem-02182015172D

 55 58  0     0  0  0  0  0  0999 V2000
   12.3739   -3.5272    0.0000 Cl  0  0  0  0  0  0  0  0  0  0  0  0
   14.1174   -2.5473    0.0000 F   0  0  0  0  0  0  0  0  0  0  0  0
    2.0000   -0.4728    0.0000 O   0  0  0  0  0  0  0  0  0  0  0  0
    7.1962    0.5272    0.0000 O   0  0  0  0  0  0  0  0  0  0  0  0
    7.1962    2.5272    0.0000 O   0  0  0  0  0  0  0  0  0  0  0  0
    3.7320    0.5272    0.0000 N   0  0  0  0  0  0  0  0  0  0  0  0
   10.6766   -0.5074    0.0000 N   0  0  0  0  0  0  0  0  0  0  0  0
   10.6882    2.5619    0.0000 N   0  0  0  0  0  0  0  0  0  0  0  0
   11.5942    1.0064    0.0000 N   0  0  0  0  0  0  0  0  0  0  0  0
    4.5981    1.0272    0.0000 C   0  0  0  0  0  0  0  0  0  0  0  0
    3.7320   -0.4728    0.0000 C   0  0  0  0  0  0  0  0  0  0  0  0
    2.8660    1.0272    0.0000 C   0  0  0  0  0  0  0  0  0  0  0  0
    5.4641    0.5272    0.0000 C   0  0  0  0  0  0  0  0  0  0  0  0
    2.8660   -0.9728    0.0000 C   0  0  0  0  0  0  0  0  0  0  0  0
    2.0000    0.5272    0.0000 C   0  0  0  0  0  0  0  0  0  0  0  0
    6.3301    1.0272    0.0000 C   0  0  0  0  0  0  0  0  0  0  0  0
    8.0622    1.0272    0.0000 C   0  0  0  0  0  0  0  0  0  0  0  0
    9.7942    1.0272    0.0000 C   0  0  0  0  0  0  0  0  0  0  0  0
    8.9282    0.5272    0.0000 C   0  0  0  0  0  0  0  0  0  0  0  0
    8.0622    2.0272    0.0000 C   0  0  0  0  0  0  0  0  0  0  0  0
    9.7942    2.0272    0.0000 C   0  0  0  0  0  0  0  0  0  0  0  0
    8.9282    2.5272    0.0000 C   0  0  0  0  0  0  0  0  0  0  0  0
   10.6882    0.4926    0.0000 C   0  0  0  0  0  0  0  0  0  0  0  0
   11.5368   -1.0174    0.0000 C   0  0  0  0  0  0  0  0  0  0  0  0
   11.5942    2.0480    0.0000 C   0  0  0  0  0  0  0  0  0  0  0  0
    7.1962    3.5272    0.0000 C   0  0  0  0  0  0  0  0  0  0  0  0
   11.5252   -2.0173    0.0000 C   0  0  0  0  0  0  0  0  0  0  0  0
   12.4085   -0.5274    0.0000 C   0  0  0  0  0  0  0  0  0  0  0  0
   12.3854   -2.5273    0.0000 C   0  0  0  0  0  0  0  0  0  0  0  0
   13.2687   -1.0374    0.0000 C   0  0  0  0  0  0  0  0  0  0  0  0
   13.2572   -2.0373    0.0000 C   0  0  0  0  0  0  0  0  0  0  0  0
    4.9966    1.5022    0.0000 H   0  0  0  0  0  0  0  0  0  0  0  0
    4.1996    1.5022    0.0000 H   0  0  0  0  0  0  0  0  0  0  0  0
    3.9441   -1.0554    0.0000 H   0  0  0  0  0  0  0  0  0  0  0  0
    4.3426   -0.3651    0.0000 H   0  0  0  0  0  0  0  0  0  0  0  0
    3.2646    1.5022    0.0000 H   0  0  0  0  0  0  0  0  0  0  0  0
    2.4675    1.5022    0.0000 H   0  0  0  0  0  0  0  0  0  0  0  0
    5.0656    0.0523    0.0000 H   0  0  0  0  0  0  0  0  0  0  0  0
    5.8626    0.0523    0.0000 H   0  0  0  0  0  0  0  0  0  0  0  0
    2.4675   -1.4477    0.0000 H   0  0  0  0  0  0  0  0  0  0  0  0
    3.2646   -1.4477    0.0000 H   0  0  0  0  0  0  0  0  0  0  0  0
    1.7880    1.1098    0.0000 H   0  0  0  0  0  0  0  0  0  0  0  0
    1.3894    0.4195    0.0000 H   0  0  0  0  0  0  0  0  0  0  0  0
    6.7287    1.5022    0.0000 H   0  0  0  0  0  0  0  0  0  0  0  0
    5.9316    1.5022    0.0000 H   0  0  0  0  0  0  0  0  0  0  0  0
    8.9282   -0.0928    0.0000 H   0  0  0  0  0  0  0  0  0  0  0  0
    8.9282    3.1472    0.0000 H   0  0  0  0  0  0  0  0  0  0  0  0
   10.1361   -0.8112    0.0000 H   0  0  0  0  0  0  0  0  0  0  0  0
   12.1300    2.3601    0.0000 H   0  0  0  0  0  0  0  0  0  0  0  0
   10.9847   -2.3211    0.0000 H   0  0  0  0  0  0  0  0  0  0  0  0
   12.4157    0.0925    0.0000 H   0  0  0  0  0  0  0  0  0  0  0  0
    7.8162    3.5272    0.0000 H   0  0  0  0  0  0  0  0  0  0  0  0
    7.1962    4.1472    0.0000 H   0  0  0  0  0  0  0  0  0  0  0  0
    6.5762    3.5272    0.0000 H   0  0  0  0  0  0  0  0  0  0  0  0
   13.8092   -0.7336    0.0000 H   0  0  0  0  0  0  0  0  0  0  0  0
  1 29  1  0  0  0  0
  2 31  1  0  0  0  0
  3 14  1  0  0  0  0
  3 15  1  0  0  0  0
  4 16  1  0  0  0  0
  4 17  1  0  0  0  0
  5 20  1  0  0  0  0
  5 26  1  0  0  0  0
  6 10  1  0  0  0  0
  6 11  1  0  0  0  0
  6 12  1  0  0  0  0
  7 23  1  0  0  0  0
  7 24  1  0  0  0  0
  7 48  1  0  0  0  0
  8 21  1  0  0  0  0
  8 25  2  0  0  0  0
  9 23  2  0  0  0  0
  9 25  1  0  0  0  0
 10 13  1  0  0  0  0
 10 32  1  0  0  0  0
 10 33  1  0  0  0  0
 11 14  1  0  0  0  0
 11 34  1  0  0  0  0
 11 35  1  0  0  0  0
 12 15  1  0  0  0  0
 12 36  1  0  0  0  0
 12 37  1  0  0  0  0
 13 16  1  0  0  0  0
 13 38  1  0  0  0  0
 13 39  1  0  0  0  0
 14 40  1  0  0  0  0
 14 41  1  0  0  0  0
 15 42  1  0  0  0  0
 15 43  1  0  0  0  0
 16 44  1  0  0  0  0
 16 45  1  0  0  0  0
 17 19  1  0  0  0  0
 17 20  2  0  0  0  0
 18 19  2  0  0  0  0
 18 21  1  0  0  0  0
 18 23  1  0  0  0  0
 19 46  1  0  0  0  0
 20 22  1  0  0  0  0
 21 22  2  0  0  0  0
 22 47  1  0  0  0  0
 24 27  2  0  0  0  0
 24 28  1  0  0  0  0
 25 49  1  0  0  0  0
 26 52  1  0  0  0  0
 26 53  1  0  0  0  0
 26 54  1  0  0  0  0
 27 29  1  0  0  0  0
 27 50  1  0  0  0  0
 28 30  2  0  0  0  0
 28 51  1  0  0  0  0
 29 31  2  0  0  0  0
 30 31  1  0  0  0  0
 30 55  1  0  0  0  0
M  END
> <PUBCHEM_COMPOUND_CID>
123631

> <PUBCHEM_COMPOUND_CANONICALIZED>
1

> <PUBCHEM_CACTVS_COMPLEXITY>
545

> <PUBCHEM_CACTVS_HBOND_ACCEPTOR>
8

> <PUBCHEM_CACTVS_HBOND_DONOR>
1

> <PUBCHEM_CACTVS_ROTATABLE_BOND>
8

> <PUBCHEM_CACTVS_SUBSKEYS>
AAADceB7sQAEAAAAAAAAAAAAAAAAAAAAAAA8eIEAAAAAAACx9AAAHwIQAAAADA7hni439vfIFACgAyZjZACCiCkxJ6AJ2CA+7piPLuLF+9uHPCru0Bva6Cew0BMOIEABAgICQABAgAIEBASAAAAAAAAAAA==

> <PUBCHEM_IUPAC_OPENEYE_NAME>
N-(3-chloro-4-fluoro-phenyl)-7-methoxy-6-(3-morpholinopropoxy)quinazolin-4-amine

> <PUBCHEM_IUPAC_CAS_NAME>
N-(3-chloro-4-fluorophenyl)-7-methoxy-6-[3-(4-morpholinyl)propoxy]-4-quinazolinamine

> <PUBCHEM_IUPAC_NAME_MARKUP>
<I>N</I>-(3-chloro-4-fluorophenyl)-7-methoxy-6-(3-morpholin-4-ylpropoxy)quinazolin-4-amine

> <PUBCHEM_IUPAC_NAME>
N-(3-chloro-4-fluorophenyl)-7-methoxy-6-(3-morpholin-4-ylpropoxy)quinazolin-4-amine

> <PUBCHEM_IUPAC_SYSTEMATIC_NAME>
N-(3-chloranyl-4-fluoranyl-phenyl)-7-methoxy-6-(3-morpholin-4-ylpropoxy)quinazolin-4-amine

> <PUBCHEM_IUPAC_TRADITIONAL_NAME>
(3-chloro-4-fluoro-phenyl)-[7-methoxy-6-(3-morpholinopropoxy)quinazolin-4-yl]amine

> <PUBCHEM_IUPAC_INCHI>
InChI=1S/C22H24ClFN4O3/c1-29-20-13-19-16(12-21(20)31-8-2-5-28-6-9-30-10-7-28)22(26-14-25-19)27-15-3-4-18(24)17(23)11-15/h3-4,11-14H,2,5-10H2,1H3,(H,25,26,27)

> <PUBCHEM_IUPAC_INCHIKEY>
XGALLCVXEZPNRQ-UHFFFAOYSA-N

> <PUBCHEM_XLOGP3_AA>
4.1

> <PUBCHEM_EXACT_MASS>
446.152097

> <PUBCHEM_MOLECULAR_FORMULA>
C22H24ClFN4O3

> <PUBCHEM_MOLECULAR_WEIGHT>
446.9

> <PUBCHEM_OPENEYE_CAN_SMILES>
COC1=C(C=C2C(=C1)N=CN=C2NC3=CC(=C(C=C3)F)Cl)OCCCN4CCOCC4

> <PUBCHEM_OPENEYE_ISO_SMILES>
COC1=C(C=C2C(=C1)N=CN=C2NC3=CC(=C(C=C3)F)Cl)OCCCN4CCOCC4

> <PUBCHEM_CACTVS_TPSA>
68.7

> <PUBCHEM_MONOISOTOPIC_WEIGHT>
446.152097

> <PUBCHEM_TOTAL_CHARGE>
0

> <PUBCHEM_HEAVY_ATOM_COUNT>
31

> <PUBCHEM_ATOM_DEF_STEREO_COUNT>
0

> <PUBCHEM_ATOM_UDEF_STEREO_COUNT>
0

> <PUBCHEM_BOND_DEF_STEREO_COUNT>
0

> <PUBCHEM_BOND_UDEF_STEREO_COUNT>
0

> <PUBCHEM_ISOTOPIC_ATOM_COUNT>
0

> <PUBCHEM_COMPONENT_COUNT>
1

> <PUBCHEM_CACTVS_TAUTO_COUNT>
-1

> <PUBCHEM_COORDINATE_TYPE>
1
5
255

> <PUBCHEM_BONDANNOTATIONS>
17  19  8
17  20  8
18  19  8
18  21  8
18  23  8
20  22  8
21  22  8
24  27  8
24  28  8
27  29  8
28  30  8
29  31  8
30  31  8
8  21  8
8  25  8
9  23  8
9  25  8

$$$$
11404337
  -OEChem-02182015172D

 43 46  0     0  0  0  0  0  0999 V2000
    8.6097    2.3121    0.0000 O   0  0  0  0  0  0  0  0  0  0  0  0
    6.8497    0.4153    0.0000 N   0  0  0  0  0  0  0  0  0  0  0  0
    9.2484   -1.5271    0.0000 N   0  0  0  0  0  0  0  0  0  0  0  0
    4.6783    0.4196    0.0000 N   0  0  0  0  0  0  0  0  0  0  0  0
    7.8007    0.7244    0.0000 C   0  0  0  0  0  0  0  0  0  0  0  0
    6.2619    1.2244    0.0000 C   0  0  0  0  0  0  0  0  0  0  0  0
    8.5052   -0.8580    0.0000 C   0  0  0  0  0  0  0  0  0  0  0  0
    7.6392   -1.3580    0.0000 C   0  0  0  0  0  0  0  0  0  0  0  0
    8.6097    0.1366    0.0000 C   0  0  0  0  0  0  0  0  0  0  0  0
    5.2619    1.2244    0.0000 C   0  0  0  0  0  0  0  0  0  0  0  0
    7.8007    1.7244    0.0000 C   0  0  0  0  0  0  0  0  0  0  0  0
    6.8497    2.0334    0.0000 C   0  0  0  0  0  0  0  0  0  0  0  0
    8.8416   -2.4406    0.0000 C   0  0  0  0  0  0  0  0  0  0  0  0
    7.8471   -2.3361    0.0000 C   0  0  0  0  0  0  0  0  0  0  0  0
    3.7320    1.7244    0.0000 C   0  0  0  0  0  0  0  0  0  0  0  0
    4.6783    2.0291    0.0000 C   0  0  0  0  0  0  0  0  0  0  0  0
    3.7320    0.7244    0.0000 C   0  0  0  0  0  0  0  0  0  0  0  0
    6.7256   -0.9512    0.0000 C   0  0  0  0  0  0  0  0  0  0  0  0
    9.3416   -3.3067    0.0000 C   0  0  0  0  0  0  0  0  0  0  0  0
    2.8660    2.2244    0.0000 C   0  0  0  0  0  0  0  0  0  0  0  0
    2.8660    0.2244    0.0000 C   0  0  0  0  0  0  0  0  0  0  0  0
    2.0000    1.7244    0.0000 C   0  0  0  0  0  0  0  0  0  0  0  0
    2.0000    0.7244    0.0000 C   0  0  0  0  0  0  0  0  0  0  0  0
    8.5052    3.3067    0.0000 C   0  0  0  0  0  0  0  0  0  0  0  0
    6.6581   -0.1743    0.0000 H   0  0  0  0  0  0  0  0  0  0  0  0
    9.1761    0.3887    0.0000 H   0  0  0  0  0  0  0  0  0  0  0  0
    6.6581    2.6230    0.0000 H   0  0  0  0  0  0  0  0  0  0  0  0
    9.8548   -1.3982    0.0000 H   0  0  0  0  0  0  0  0  0  0  0  0
    7.4322   -2.7968    0.0000 H   0  0  0  0  0  0  0  0  0  0  0  0
    4.8709    2.6184    0.0000 H   0  0  0  0  0  0  0  0  0  0  0  0
    6.9778   -0.3848    0.0000 H   0  0  0  0  0  0  0  0  0  0  0  0
    6.1592   -0.6990    0.0000 H   0  0  0  0  0  0  0  0  0  0  0  0
    6.4735   -1.5176    0.0000 H   0  0  0  0  0  0  0  0  0  0  0  0
    8.8047   -3.6167    0.0000 H   0  0  0  0  0  0  0  0  0  0  0  0
    9.6516   -3.8436    0.0000 H   0  0  0  0  0  0  0  0  0  0  0  0
    9.8786   -2.9967    0.0000 H   0  0  0  0  0  0  0  0  0  0  0  0
    2.8660    2.8444    0.0000 H   0  0  0  0  0  0  0  0  0  0  0  0
    2.8660   -0.3956    0.0000 H   0  0  0  0  0  0  0  0  0  0  0  0
    1.4631    2.0344    0.0000 H   0  0  0  0  0  0  0  0  0  0  0  0
    1.4631    0.4144    0.0000 H   0  0  0  0  0  0  0  0  0  0  0  0
    9.1218    3.3715    0.0000 H   0  0  0  0  0  0  0  0  0  0  0  0
    8.4404    3.9233    0.0000 H   0  0  0  0  0  0  0  0  0  0  0  0
    7.8886    3.2418    0.0000 H   0  0  0  0  0  0  0  0  0  0  0  0
  1 11  1  0  0  0  0
  1 24  1  0  0  0  0
  2  5  1  0  0  0  0
  2  6  1  0  0  0  0
  2 25  1  0  0  0  0
  3  7  1  0  0  0  0
  3 13  1  0  0  0  0
  3 28  1  0  0  0  0
  4 10  1  0  0  0  0
  4 17  2  0  0  0  0
  5  9  2  0  0  0  0
  5 11  1  0  0  0  0
  6 10  2  0  0  0  0
  6 12  1  0  0  0  0
  7  8  2  0  0  0  0
  7  9  1  0  0  0  0
  8 14  1  0  0  0  0
  8 18  1  0  0  0  0
  9 26  1  0  0  0  0
 10 16  1  0  0  0  0
 11 12  2  0  0  0  0
 12 27  1  0  0  0  0
 13 14  2  0  0  0  0
 13 19  1  0  0  0  0
 14 29  1  0  0  0  0
 15 16  2  0  0  0  0
 15 17  1  0  0  0  0
 15 20  1  0  0  0  0
 16 30  1  0  0  0  0
 17 21  1  0  0  0  0
 18 31  1  0  0  0  0
 18 32  1  0  0  0  0
 18 33  1  0  0  0  0
 19 34  1  0  0  0  0
 19 35  1  0  0  0  0
 19 36  1  0  0  0  0
 20 22  2  0  0  0  0
 20 37  1  0  0  0  0
 21 23  2  0  0  0  0
 21 38  1  0  0  0  0
 22 23  1  0  0  0  0
 22 39  1  0  0  0  0
 23 40  1  0  0  0  0
 24 41  1  0  0  0  0
 24 42  1  0  0  0  0
 24 43  1  0  0  0  0
M  END
> <PUBCHEM_COMPOUND_CID>
11404337

> <PUBCHEM_COMPOUND_CANONICALIZED>
1

> <PUBCHEM_CACTVS_COMPLEXITY>
777

> <PUBCHEM_CACTVS_HBOND_ACCEPTOR>
3

> <PUBCHEM_CACTVS_HBOND_DONOR>
2

> <PUBCHEM_CACTVS_ROTATABLE_BOND>
2

> <PUBCHEM_CACTVS_SUBSKEYS>
AAADceB7IAAAAAAAAAAAAAAAAAAAAWIEAAAgAAAAAAAAAEABgAAAHgAQAAAADAyBngIygJLJlACgAyRiRACCiCAhIiAImSAwZJgKJOLAsZGFEAhgkADY6AcQAAAOAAAAAAAAAAAAAAAAAAAAAAAAAAAAAA==

> <PUBCHEM_IUPAC_OPENEYE_NAME>
(2Z)-2-[(5Z)-5-[(3,5-dimethyl-1H-pyrrol-2-yl)methylene]-4-methoxy-pyrrol-2-ylidene]indole

> <PUBCHEM_IUPAC_CAS_NAME>
(2Z)-2-[(5Z)-5-[(3,5-dimethyl-1H-pyrrol-2-yl)methylidene]-4-methoxy-2-pyrrolylidene]indole

> <PUBCHEM_IUPAC_NAME_MARKUP>
(2<I>Z</I>)-2-[(5<I>Z</I>)-5-[(3,5-dimethyl-1<I>H</I>-pyrrol-2-yl)methylidene]-4-methoxypyrrol-2-ylidene]indole

> <PUBCHEM_IUPAC_NAME>
(2Z)-2-[(5Z)-5-[(3,5-dimethyl-1H-pyrrol-2-yl)methylidene]-4-methoxypyrrol-2-ylidene]indole

> <PUBCHEM_IUPAC_SYSTEMATIC_NAME>
(2Z)-2-[(5Z)-5-[(3,5-dimethyl-1H-pyrrol-2-yl)methylidene]-4-methoxy-pyrrol-2-ylidene]indole

> <PUBCHEM_IUPAC_TRADITIONAL_NAME>
(2Z)-2-[(5Z)-5-[(3,5-dimethyl-1H-pyrrol-2-yl)methylene]-4-methoxy-3-pyrrolin-2-ylidene]indole

> <PUBCHEM_IUPAC_INCHI>
InChI=1S/C20H19N3O/c1-12-8-13(2)21-16(12)10-19-20(24-3)11-18(23-19)17-9-14-6-4-5-7-15(14)22-17/h4-11,21,23H,1-3H3/b18-17-,19-10-

> <PUBCHEM_IUPAC_INCHIKEY>
CVCLJVVBHYOXDC-IAZSKANUSA-N

> <PUBCHEM_XLOGP3_AA>
3.3

> <PUBCHEM_EXACT_MASS>
317.152812

> <PUBCHEM_MOLECULAR_FORMULA>
C20H19N3O

> <PUBCHEM_MOLECULAR_WEIGHT>
317.4

> <PUBCHEM_OPENEYE_CAN_SMILES>
CC1=CC(=C(N1)C=C2C(=CC(=C3C=C4C=CC=CC4=N3)N2)OC)C

> <PUBCHEM_OPENEYE_ISO_SMILES>
CC1=CC(=C(N1)/C=C\2/C(=C/C(=C/3\C=C4C=CC=CC4=N3)/N2)OC)C

> <PUBCHEM_CACTVS_TPSA>
49.4

> <PUBCHEM_MONOISOTOPIC_WEIGHT>
317.152812

> <PUBCHEM_TOTAL_CHARGE>
0

> <PUBCHEM_HEAVY_ATOM_COUNT>
24

> <PUBCHEM_ATOM_DEF_STEREO_COUNT>
0

> <PUBCHEM_ATOM_UDEF_STEREO_COUNT>
0

> <PUBCHEM_BOND_DEF_STEREO_COUNT>
2

> <PUBCHEM_BOND_UDEF_STEREO_COUNT>
0

> <PUBCHEM_ISOTOPIC_ATOM_COUNT>
0

> <PUBCHEM_COMPONENT_COUNT>
1

> <PUBCHEM_CACTVS_TAUTO_COUNT>
-1

> <PUBCHEM_COORDINATE_TYPE>
1
5
255

> <PUBCHEM_BONDANNOTATIONS>
11  12  8
13  14  8
15  17  8
15  20  8
17  21  8
2  5  8
2  6  8
20  22  8
21  23  8
22  23  8
3  13  8
3  7  8
5  11  8
6  12  8
7  8  8
8  14  8

$$$$
44632017
  -OEChem-02182015172D

 37 39  0     1  0  0  0  0  0999 V2000
    2.8660    0.1370    0.0000 Cl  0  0  0  0  0  0  0  0  0  0  0  0
    2.8660   -3.8630    0.0000 Cl  0  0  0  0  0  0  0  0  0  0  0  0
    4.3709   -0.1067    0.0000 O   0  0  0  0  0  0  0  0  0  0  0  0
    6.2619   -1.8630    0.0000 O   0  0  0  0  0  0  0  0  0  0  0  0
    4.4727    0.9311    0.0000 O   0  0  0  0  0  0  0  0  0  0  0  0
    8.6256    2.8683    0.0000 O   0  0  0  0  0  0  0  0  0  0  0  0
    4.6783   -2.6678    0.0000 N   0  0  0  0  0  0  0  0  0  0  0  0
    4.6783   -1.0583    0.0000 C   0  0  3  0  0  0  0  0  0  0  0  0
    3.7320   -1.3630    0.0000 C   0  0  0  0  0  0  0  0  0  0  0  0
    5.4883   -0.4719    0.0000 C   0  0  0  0  0  0  0  0  0  0  0  0
    3.7320   -2.3630    0.0000 C   0  0  0  0  0  0  0  0  0  0  0  0
    5.2619   -1.8630    0.0000 C   0  0  0  0  0  0  0  0  0  0  0  0
    2.8660   -0.8630    0.0000 C   0  0  0  0  0  0  0  0  0  0  0  0
    5.3855    0.5228    0.0000 C   0  0  0  0  0  0  0  0  0  0  0  0
    2.8660   -2.8630    0.0000 C   0  0  0  0  0  0  0  0  0  0  0  0
    2.0000   -1.3630    0.0000 C   0  0  0  0  0  0  0  0  0  0  0  0
    2.0000   -2.3630    0.0000 C   0  0  0  0  0  0  0  0  0  0  0  0
    6.1955    1.1092    0.0000 C   0  0  0  0  0  0  0  0  0  0  0  0
    6.0927    2.1039    0.0000 C   0  0  0  0  0  0  0  0  0  0  0  0
    7.1084    0.7009    0.0000 C   0  0  0  0  0  0  0  0  0  0  0  0
    6.9028    2.6903    0.0000 C   0  0  0  0  0  0  0  0  0  0  0  0
    7.9184    1.2872    0.0000 C   0  0  0  0  0  0  0  0  0  0  0  0
    7.8156    2.2819    0.0000 C   0  0  0  0  0  0  0  0  0  0  0  0
    8.5228    3.8630    0.0000 C   0  0  0  0  0  0  0  0  0  0  0  0
    5.7591   -1.0296    0.0000 H   0  0  0  0  0  0  0  0  0  0  0  0
    6.0846   -0.3020    0.0000 H   0  0  0  0  0  0  0  0  0  0  0  0
    4.8709   -3.2571    0.0000 H   0  0  0  0  0  0  0  0  0  0  0  0
    3.7647    0.0232    0.0000 H   0  0  0  0  0  0  0  0  0  0  0  0
    1.4631   -1.0530    0.0000 H   0  0  0  0  0  0  0  0  0  0  0  0
    1.4631   -2.6730    0.0000 H   0  0  0  0  0  0  0  0  0  0  0  0
    5.5268    2.3570    0.0000 H   0  0  0  0  0  0  0  0  0  0  0  0
    7.1721    0.0841    0.0000 H   0  0  0  0  0  0  0  0  0  0  0  0
    6.8390    3.3070    0.0000 H   0  0  0  0  0  0  0  0  0  0  0  0
    8.4844    1.0341    0.0000 H   0  0  0  0  0  0  0  0  0  0  0  0
    9.1395    3.9268    0.0000 H   0  0  0  0  0  0  0  0  0  0  0  0
    8.4591    4.4797    0.0000 H   0  0  0  0  0  0  0  0  0  0  0  0
    7.9061    3.7993    0.0000 H   0  0  0  0  0  0  0  0  0  0  0  0
  1 13  1  0  0  0  0
  2 15  1  0  0  0  0
  3  8  1  0  0  0  0
  3 28  1  0  0  0  0
  4 12  2  0  0  0  0
  5 14  2  0  0  0  0
  6 23  1  0  0  0  0
  6 24  1  0  0  0  0
  7 11  1  0  0  0  0
  7 12  1  0  0  0  0
  7 27  1  0  0  0  0
  8  9  1  0  0  0  0
  8 10  1  0  0  0  0
  8 12  1  0  0  0  0
  9 11  1  0  0  0  0
  9 13  2  0  0  0  0
 10 14  1  0  0  0  0
 10 25  1  0  0  0  0
 10 26  1  0  0  0  0
 11 15  2  0  0  0  0
 13 16  1  0  0  0  0
 14 18  1  0  0  0  0
 15 17  1  0  0  0  0
 16 17  2  0  0  0  0
 16 29  1  0  0  0  0
 17 30  1  0  0  0  0
 18 19  2  0  0  0  0
 18 20  1  0  0  0  0
 19 21  1  0  0  0  0
 19 31  1  0  0  0  0
 20 22  2  0  0  0  0
 20 32  1  0  0  0  0
 21 23  2  0  0  0  0
 21 33  1  0  0  0  0
 22 23  1  0  0  0  0
 22 34  1  0  0  0  0
 24 35  1  0  0  0  0
 24 36  1  0  0  0  0
 24 37  1  0  0  0  0
M  END
> <PUBCHEM_COMPOUND_CID>
44632017

> <PUBCHEM_COMPOUND_CANONICALIZED>
1

> <PUBCHEM_CACTVS_COMPLEXITY>
509

> <PUBCHEM_CACTVS_HBOND_ACCEPTOR>
4

> <PUBCHEM_CACTVS_HBOND_DONOR>
2

> <PUBCHEM_CACTVS_ROTATABLE_BOND>
4

> <PUBCHEM_CACTVS_SUBSKEYS>
AAADccB6OAAGAAAAAAAAAAAAAAAAAWAAAAAwYAAAAAAAAFgBQAAAHgIQCAAADE6BmCIyxoLABgCIAqVSUAKCCAAlJQAIiAFGTsgOJjbFt5vEcShm5BHY+YedzeDeoAAQIAIDABBAACBABAYAIAAAAAAAAA==

> <PUBCHEM_IUPAC_OPENEYE_NAME>
4,7-dichloro-3-hydroxy-3-[2-(4-methoxyphenyl)-2-oxo-ethyl]indolin-2-one

> <PUBCHEM_IUPAC_CAS_NAME>
4,7-dichloro-3-hydroxy-3-[2-(4-methoxyphenyl)-2-oxoethyl]-1H-indol-2-one

> <PUBCHEM_IUPAC_NAME_MARKUP>
4,7-dichloro-3-hydroxy-3-[2-(4-methoxyphenyl)-2-oxoethyl]-1<I>H</I>-indol-2-one

> <PUBCHEM_IUPAC_NAME>
4,7-dichloro-3-hydroxy-3-[2-(4-methoxyphenyl)-2-oxoethyl]-1H-indol-2-one

> <PUBCHEM_IUPAC_SYSTEMATIC_NAME>
4,7-bis(chloranyl)-3-[2-(4-methoxyphenyl)-2-oxidanylidene-ethyl]-3-oxidanyl-1H-indol-2-one

> <PUBCHEM_IUPAC_TRADITIONAL_NAME>
4,7-dichloro-3-hydroxy-3-[2-keto-2-(4-methoxyphenyl)ethyl]oxindole

> <PUBCHEM_IUPAC_INCHI>
InChI=1S/C17H13Cl2NO4/c1-24-10-4-2-9(3-5-10)13(21)8-17(23)14-11(18)6-7-12(19)15(14)20-16(17)22/h2-7,23H,8H2,1H3,(H,20,22)

> <PUBCHEM_IUPAC_INCHIKEY>
HLXSCTYHLQHQDJ-UHFFFAOYSA-N

> <PUBCHEM_XLOGP3_AA>
3.1

> <PUBCHEM_EXACT_MASS>
365.022163

> <PUBCHEM_MOLECULAR_FORMULA>
C17H13Cl2NO4

> <PUBCHEM_MOLECULAR_WEIGHT>
366.2

> <PUBCHEM_OPENEYE_CAN_SMILES>
COC1=CC=C(C=C1)C(=O)CC2(C3=C(C=CC(=C3NC2=O)Cl)Cl)O

> <PUBCHEM_OPENEYE_ISO_SMILES>
COC1=CC=C(C=C1)C(=O)CC2(C3=C(C=CC(=C3NC2=O)Cl)Cl)O

> <PUBCHEM_CACTVS_TPSA>
75.6

> <PUBCHEM_MONOISOTOPIC_WEIGHT>
365.022163

> <PUBCHEM_TOTAL_CHARGE>
0

> <PUBCHEM_HEAVY_ATOM_COUNT>
24

> <PUBCHEM_ATOM_DEF_STEREO_COUNT>
0

> <PUBCHEM_ATOM_UDEF_STEREO_COUNT>
1

> <PUBCHEM_BOND_DEF_STEREO_COUNT>
0

> <PUBCHEM_BOND_UDEF_STEREO_COUNT>
0

> <PUBCHEM_ISOTOPIC_ATOM_COUNT>
0

> <PUBCHEM_COMPONENT_COUNT>
1

> <PUBCHEM_CACTVS_TAUTO_COUNT>
-1

> <PUBCHEM_COORDINATE_TYPE>
1
5
255

> <PUBCHEM_BONDANNOTATIONS>
11  15  8
13  16  8
15  17  8
16  17  8
18  19  8
18  20  8
19  21  8
20  22  8
21  23  8
22  23  8
8  3  3
9  11  8
9  13  8

$$$$
2155128
  -OEChem-02182015172D

 49 53  0     0  0  0  0  0  0999 V2000
   11.3512   -2.5867    0.0000 S   0  0  0  0  0  0  0  0  0  0  0  0
    7.8069   -0.7820    0.0000 S   0  0  0  0  0  0  0  0  0  0  0  0
    5.1671    1.8129    0.0000 S   0  0  0  0  0  0  0  0  0  0  0  0
    9.5390   -3.7820    0.0000 O   0  0  0  0  0  0  0  0  0  0  0  0
    6.0749    0.2180    0.0000 O   0  0  0  0  0  0  0  0  0  0  0  0
    8.6730   -2.2820    0.0000 N   0  0  0  0  0  0  0  0  0  0  0  0
    9.5390   -0.7820    0.0000 N   0  0  0  0  0  0  0  0  0  0  0  0
    6.9409    1.7180    0.0000 N   0  0  0  0  0  0  0  0  0  0  0  0
    5.9718    3.2068    0.0000 N   0  0  0  0  0  0  0  0  0  0  0  0
   11.3512   -0.9772    0.0000 C   0  0  0  0  0  0  0  0  0  0  0  0
   10.4050   -1.2820    0.0000 C   0  0  0  0  0  0  0  0  0  0  0  0
   10.4050   -2.2820    0.0000 C   0  0  0  0  0  0  0  0  0  0  0  0
   11.9348   -1.7820    0.0000 C   0  0  0  0  0  0  0  0  0  0  0  0
    9.5390   -2.7820    0.0000 C   0  0  0  0  0  0  0  0  0  0  0  0
    8.6730   -1.2820    0.0000 C   0  0  0  0  0  0  0  0  0  0  0  0
    7.8069   -2.7820    0.0000 C   0  0  0  0  0  0  0  0  0  0  0  0
    6.9409   -2.2820    0.0000 C   0  0  0  0  0  0  0  0  0  0  0  0
    7.8069   -3.7820    0.0000 C   0  0  0  0  0  0  0  0  0  0  0  0
    7.8069    0.2180    0.0000 C   0  0  0  0  0  0  0  0  0  0  0  0
    4.5000    2.5499    0.0000 C   0  0  0  0  0  0  0  0  0  0  0  0
    5.0000    3.4160    0.0000 C   0  0  0  0  0  0  0  0  0  0  0  0
    6.0749   -2.7820    0.0000 C   0  0  0  0  0  0  0  0  0  0  0  0
    6.9409   -4.2820    0.0000 C   0  0  0  0  0  0  0  0  0  0  0  0
    3.0000    3.4160    0.0000 C   0  0  0  0  0  0  0  0  0  0  0  0
    6.9409    0.7180    0.0000 C   0  0  0  0  0  0  0  0  0  0  0  0
    6.0749    2.2180    0.0000 C   0  0  0  0  0  0  0  0  0  0  0  0
    3.5000    2.5499    0.0000 C   0  0  0  0  0  0  0  0  0  0  0  0
    4.5000    4.2820    0.0000 C   0  0  0  0  0  0  0  0  0  0  0  0
    6.0749   -3.7820    0.0000 C   0  0  0  0  0  0  0  0  0  0  0  0
    3.5000    4.2820    0.0000 C   0  0  0  0  0  0  0  0  0  0  0  0
    2.0000    3.4160    0.0000 C   0  0  0  0  0  0  0  0  0  0  0  0
   11.8886   -0.6680    0.0000 H   0  0  0  0  0  0  0  0  0  0  0  0
   11.1002   -0.4103    0.0000 H   0  0  0  0  0  0  0  0  0  0  0  0
   12.3957   -2.1967    0.0000 H   0  0  0  0  0  0  0  0  0  0  0  0
   12.3957   -1.3672    0.0000 H   0  0  0  0  0  0  0  0  0  0  0  0
    6.9409   -1.6620    0.0000 H   0  0  0  0  0  0  0  0  0  0  0  0
    8.3439   -4.0920    0.0000 H   0  0  0  0  0  0  0  0  0  0  0  0
    8.4175    0.1104    0.0000 H   0  0  0  0  0  0  0  0  0  0  0  0
    8.0190    0.8006    0.0000 H   0  0  0  0  0  0  0  0  0  0  0  0
    5.5379   -2.4720    0.0000 H   0  0  0  0  0  0  0  0  0  0  0  0
    6.9409   -4.9020    0.0000 H   0  0  0  0  0  0  0  0  0  0  0  0
    3.1900    2.0130    0.0000 H   0  0  0  0  0  0  0  0  0  0  0  0
    4.8100    4.8189    0.0000 H   0  0  0  0  0  0  0  0  0  0  0  0
    5.5379   -4.0920    0.0000 H   0  0  0  0  0  0  0  0  0  0  0  0
    7.4778    2.0280    0.0000 H   0  0  0  0  0  0  0  0  0  0  0  0
    3.1900    4.8189    0.0000 H   0  0  0  0  0  0  0  0  0  0  0  0
    2.0000    4.0360    0.0000 H   0  0  0  0  0  0  0  0  0  0  0  0
    1.3800    3.4160    0.0000 H   0  0  0  0  0  0  0  0  0  0  0  0
    2.0000    2.7960    0.0000 H   0  0  0  0  0  0  0  0  0  0  0  0
  1 12  1  0  0  0  0
  1 13  1  0  0  0  0
  2 15  1  0  0  0  0
  2 19  1  0  0  0  0
  3 20  1  0  0  0  0
  3 26  1  0  0  0  0
  4 14  2  0  0  0  0
  5 25  2  0  0  0  0
  6 14  1  0  0  0  0
  6 15  1  0  0  0  0
  6 16  1  0  0  0  0
  7 11  1  0  0  0  0
  7 15  2  0  0  0  0
  8 25  1  0  0  0  0
  8 26  1  0  0  0  0
  8 45  1  0  0  0  0
  9 21  1  0  0  0  0
  9 26  2  0  0  0  0
 10 11  1  0  0  0  0
 10 13  1  0  0  0  0
 10 32  1  0  0  0  0
 10 33  1  0  0  0  0
 11 12  2  0  0  0  0
 12 14  1  0  0  0  0
 13 34  1  0  0  0  0
 13 35  1  0  0  0  0
 16 17  2  0  0  0  0
 16 18  1  0  0  0  0
 17 22  1  0  0  0  0
 17 36  1  0  0  0  0
 18 23  2  0  0  0  0
 18 37  1  0  0  0  0
 19 25  1  0  0  0  0
 19 38  1  0  0  0  0
 19 39  1  0  0  0  0
 20 21  2  0  0  0  0
 20 27  1  0  0  0  0
 21 28  1  0  0  0  0
 22 29  2  0  0  0  0
 22 40  1  0  0  0  0
 23 29  1  0  0  0  0
 23 41  1  0  0  0  0
 24 27  2  0  0  0  0
 24 30  1  0  0  0  0
 24 31  1  0  0  0  0
 27 42  1  0  0  0  0
 28 30  2  0  0  0  0
 28 43  1  0  0  0  0
 29 44  1  0  0  0  0
 30 46  1  0  0  0  0
 31 47  1  0  0  0  0
 31 48  1  0  0  0  0
 31 49  1  0  0  0  0
M  END
> <PUBCHEM_COMPOUND_CID>
2155128

> <PUBCHEM_COMPOUND_CANONICALIZED>
1

> <PUBCHEM_CACTVS_COMPLEXITY>
796

> <PUBCHEM_CACTVS_HBOND_ACCEPTOR>
7

> <PUBCHEM_CACTVS_HBOND_DONOR>
1

> <PUBCHEM_CACTVS_ROTATABLE_BOND>
5

> <PUBCHEM_CACTVS_SUBSKEYS>
AAADceB7sABgAAAAAAAAAAAAAAAAAWIAAAAwYIAAAAAAAFgB9AAAHgQQAAAADAiF3gCz0bPIEAisAyVydACD8KlhCjlJmDwwZNiIIKLgmZGEIAholQLoyWcQgAAOCAAAgAAAAQAQAAEAAAACAAAAAAAAAA==

> <PUBCHEM_IUPAC_OPENEYE_NAME>
N-(6-methyl-1,3-benzothiazol-2-yl)-2-[(4-oxo-3-phenyl-6,7-dihydrothieno[3,2-d]pyrimidin-2-yl)sulfanyl]acetamide

> <PUBCHEM_IUPAC_CAS_NAME>
N-(6-methyl-1,3-benzothiazol-2-yl)-2-[(4-oxo-3-phenyl-6,7-dihydrothieno[3,2-d]pyrimidin-2-yl)thio]acetamide

> <PUBCHEM_IUPAC_NAME_MARKUP>
<I>N</I>-(6-methyl-1,3-benzothiazol-2-yl)-2-[(4-oxo-3-phenyl-6,7-dihydrothieno[3,2-d]pyrimidin-2-yl)sulfanyl]acetamide

> <PUBCHEM_IUPAC_NAME>
N-(6-methyl-1,3-benzothiazol-2-yl)-2-[(4-oxo-3-phenyl-6,7-dihydrothieno[3,2-d]pyrimidin-2-yl)sulfanyl]acetamide

> <PUBCHEM_IUPAC_SYSTEMATIC_NAME>
N-(6-methyl-1,3-benzothiazol-2-yl)-2-[(4-oxidanylidene-3-phenyl-6,7-dihydrothieno[3,2-d]pyrimidin-2-yl)sulfanyl]ethanamide

> <PUBCHEM_IUPAC_TRADITIONAL_NAME>
2-[(4-keto-3-phenyl-6,7-dihydrothieno[3,2-d]pyrimidin-2-yl)thio]-N-(6-methyl-1,3-benzothiazol-2-yl)acetamide

> <PUBCHEM_IUPAC_INCHI>
InChI=1S/C22H18N4O2S3/c1-13-7-8-15-17(11-13)31-21(23-15)25-18(27)12-30-22-24-16-9-10-29-19(16)20(28)26(22)14-5-3-2-4-6-14/h2-8,11H,9-10,12H2,1H3,(H,23,25,27)

> <PUBCHEM_IUPAC_INCHIKEY>
WRKPZSMRWPJJDH-UHFFFAOYSA-N

> <PUBCHEM_XLOGP3_AA>
4.8

> <PUBCHEM_EXACT_MASS>
466.059189

> <PUBCHEM_MOLECULAR_FORMULA>
C22H18N4O2S3

> <PUBCHEM_MOLECULAR_WEIGHT>
466.6

> <PUBCHEM_OPENEYE_CAN_SMILES>
CC1=CC2=C(C=C1)N=C(S2)NC(=O)CSC3=NC4=C(C(=O)N3C5=CC=CC=C5)SCC4

> <PUBCHEM_OPENEYE_ISO_SMILES>
CC1=CC2=C(C=C1)N=C(S2)NC(=O)CSC3=NC4=C(C(=O)N3C5=CC=CC=C5)SCC4

> <PUBCHEM_CACTVS_TPSA>
154

> <PUBCHEM_MONOISOTOPIC_WEIGHT>
466.059189

> <PUBCHEM_TOTAL_CHARGE>
0

> <PUBCHEM_HEAVY_ATOM_COUNT>
31

> <PUBCHEM_ATOM_DEF_STEREO_COUNT>
0

> <PUBCHEM_ATOM_UDEF_STEREO_COUNT>
0

> <PUBCHEM_BOND_DEF_STEREO_COUNT>
0

> <PUBCHEM_BOND_UDEF_STEREO_COUNT>
0

> <PUBCHEM_ISOTOPIC_ATOM_COUNT>
0

> <PUBCHEM_COMPONENT_COUNT>
1

> <PUBCHEM_CACTVS_TAUTO_COUNT>
-1

> <PUBCHEM_COORDINATE_TYPE>
1
5
255

> <PUBCHEM_BONDANNOTATIONS>
11  12  8
12  14  8
16  17  8
16  18  8
17  22  8
18  23  8
20  21  8
20  27  8
21  28  8
22  29  8
23  29  8
24  27  8
24  30  8
28  30  8
3  20  8
3  26  8
6  14  8
6  15  8
7  11  8
7  15  8
9  21  8
9  26  8

$$$$
3899
  -OEChem-02182015172D

 28 29  0     0  0  0  0  0  0999 V2000
    4.6261    4.0194    0.0000 F   0  0  0  0  0  0  0  0  0  0  0  0
    5.6261    3.0194    0.0000 F   0  0  0  0  0  0  0  0  0  0  0  0
    3.6261    3.0194    0.0000 F   0  0  0  0  0  0  0  0  0  0  0  0
    3.2601   -4.0194    0.0000 O   0  0  0  0  0  0  0  0  0  0  0  0
    2.8940   -0.9806    0.0000 O   0  0  0  0  0  0  0  0  0  0  0  0
    4.6261   -0.9806    0.0000 N   0  0  0  0  0  0  0  0  0  0  0  0
    4.2601   -4.0194    0.0000 N   0  0  0  0  0  0  0  0  0  0  0  0
    4.6261    0.0194    0.0000 C   0  0  0  0  0  0  0  0  0  0  0  0
    4.6261    2.0194    0.0000 C   0  0  0  0  0  0  0  0  0  0  0  0
    3.7601   -2.4806    0.0000 C   0  0  0  0  0  0  0  0  0  0  0  0
    5.4921    0.5194    0.0000 C   0  0  0  0  0  0  0  0  0  0  0  0
    3.7601    0.5194    0.0000 C   0  0  0  0  0  0  0  0  0  0  0  0
    5.4921    1.5194    0.0000 C   0  0  0  0  0  0  0  0  0  0  0  0
    3.7601    1.5194    0.0000 C   0  0  0  0  0  0  0  0  0  0  0  0
    3.7601   -1.4806    0.0000 C   0  0  0  0  0  0  0  0  0  0  0  0
    2.9511   -3.0684    0.0000 C   0  0  0  0  0  0  0  0  0  0  0  0
    4.6261    3.0194    0.0000 C   0  0  0  0  0  0  0  0  0  0  0  0
    4.5691   -3.0684    0.0000 C   0  0  0  0  0  0  0  0  0  0  0  0
    2.0000   -2.7594    0.0000 C   0  0  0  0  0  0  0  0  0  0  0  0
    6.0291    0.2094    0.0000 H   0  0  0  0  0  0  0  0  0  0  0  0
    3.2231    0.2094    0.0000 H   0  0  0  0  0  0  0  0  0  0  0  0
    5.1630   -1.2906    0.0000 H   0  0  0  0  0  0  0  0  0  0  0  0
    6.0291    1.8294    0.0000 H   0  0  0  0  0  0  0  0  0  0  0  0
    3.2231    1.8294    0.0000 H   0  0  0  0  0  0  0  0  0  0  0  0
    5.1588   -2.8768    0.0000 H   0  0  0  0  0  0  0  0  0  0  0  0
    2.1916   -2.1697    0.0000 H   0  0  0  0  0  0  0  0  0  0  0  0
    1.4103   -2.5678    0.0000 H   0  0  0  0  0  0  0  0  0  0  0  0
    1.8084   -3.3490    0.0000 H   0  0  0  0  0  0  0  0  0  0  0  0
  1 17  1  0  0  0  0
  2 17  1  0  0  0  0
  3 17  1  0  0  0  0
  4  7  1  0  0  0  0
  4 16  1  0  0  0  0
  5 15  2  0  0  0  0
  6  8  1  0  0  0  0
  6 15  1  0  0  0  0
  6 22  1  0  0  0  0
  7 18  2  0  0  0  0
  8 11  2  0  0  0  0
  8 12  1  0  0  0  0
  9 13  2  0  0  0  0
  9 14  1  0  0  0  0
  9 17  1  0  0  0  0
 10 15  1  0  0  0  0
 10 16  2  0  0  0  0
 10 18  1  0  0  0  0
 11 13  1  0  0  0  0
 11 20  1  0  0  0  0
 12 14  2  0  0  0  0
 12 21  1  0  0  0  0
 13 23  1  0  0  0  0
 14 24  1  0  0  0  0
 16 19  1  0  0  0  0
 18 25  1  0  0  0  0
 19 26  1  0  0  0  0
 19 27  1  0  0  0  0
 19 28  1  0  0  0  0
M  END
> <PUBCHEM_COMPOUND_CID>
3899

> <PUBCHEM_COMPOUND_CANONICALIZED>
1

> <PUBCHEM_CACTVS_COMPLEXITY>
327

> <PUBCHEM_CACTVS_HBOND_ACCEPTOR>
6

> <PUBCHEM_CACTVS_HBOND_DONOR>
1

> <PUBCHEM_CACTVS_ROTATABLE_BOND>
2

> <PUBCHEM_CACTVS_SUBSKEYS>
AAADccBzMYAAAAAAAAAAAAAAAAAAAWAAAAAwAAAAAAAAAAABwAAAHwAUAAAADAzBmhQ+xJLQAACpArV3UgCCAAAlIgAomCEkbNoIJD7I0ZGEIchitAjIyccQgAAOCAAAAAAAAAAQAAAAAAAAAAAAAAAAAA==

> <PUBCHEM_IUPAC_OPENEYE_NAME>
5-methyl-N-[4-(trifluoromethyl)phenyl]isoxazole-4-carboxamide

> <PUBCHEM_IUPAC_CAS_NAME>
5-methyl-N-[4-(trifluoromethyl)phenyl]-4-isoxazolecarboxamide

> <PUBCHEM_IUPAC_NAME_MARKUP>
5-methyl-<I>N</I>-[4-(trifluoromethyl)phenyl]-1,2-oxazole-4-carboxamide

> <PUBCHEM_IUPAC_NAME>
5-methyl-N-[4-(trifluoromethyl)phenyl]-1,2-oxazole-4-carboxamide

> <PUBCHEM_IUPAC_SYSTEMATIC_NAME>
5-methyl-N-[4-(trifluoromethyl)phenyl]-1,2-oxazole-4-carboxamide

> <PUBCHEM_IUPAC_TRADITIONAL_NAME>
5-methyl-N-[4-(trifluoromethyl)phenyl]isoxazole-4-carboxamide

> <PUBCHEM_IUPAC_INCHI>
InChI=1S/C12H9F3N2O2/c1-7-10(6-16-19-7)11(18)17-9-4-2-8(3-5-9)12(13,14)15/h2-6H,1H3,(H,17,18)

> <PUBCHEM_IUPAC_INCHIKEY>
VHOGYURTWQBHIL-UHFFFAOYSA-N

> <PUBCHEM_XLOGP3_AA>
2.5

> <PUBCHEM_EXACT_MASS>
270.061612

> <PUBCHEM_MOLECULAR_FORMULA>
C12H9F3N2O2

> <PUBCHEM_MOLECULAR_WEIGHT>
270.21

> <PUBCHEM_OPENEYE_CAN_SMILES>
CC1=C(C=NO1)C(=O)NC2=CC=C(C=C2)C(F)(F)F

> <PUBCHEM_OPENEYE_ISO_SMILES>
CC1=C(C=NO1)C(=O)NC2=CC=C(C=C2)C(F)(F)F

> <PUBCHEM_CACTVS_TPSA>
55.1

> <PUBCHEM_MONOISOTOPIC_WEIGHT>
270.061612

> <PUBCHEM_TOTAL_CHARGE>
0

> <PUBCHEM_HEAVY_ATOM_COUNT>
19

> <PUBCHEM_ATOM_DEF_STEREO_COUNT>
0

> <PUBCHEM_ATOM_UDEF_STEREO_COUNT>
0

> <PUBCHEM_BOND_DEF_STEREO_COUNT>
0

> <PUBCHEM_BOND_UDEF_STEREO_COUNT>
0

> <PUBCHEM_ISOTOPIC_ATOM_COUNT>
0

> <PUBCHEM_COMPONENT_COUNT>
1

> <PUBCHEM_CACTVS_TAUTO_COUNT>
-1

> <PUBCHEM_COORDINATE_TYPE>
1
5
255

> <PUBCHEM_BONDANNOTATIONS>
10  16  8
10  18  8
11  13  8
12  14  8
4  16  8
4  7  8
7  18  8
8  11  8
8  12  8
9  13  8
9  14  8

$$$$
227681
  -OEChem-02182015172D

 22 22  0     0  0  0  0  0  0999 V2000
    2.8940   -0.2694    0.0000 O   0  0  0  0  0  0  0  0  0  0  0  0
    5.5202    1.5094    0.0000 O   0  0  0  0  0  0  0  0  0  0  0  0
    2.0000    1.5094    0.0000 O   0  0  0  0  0  0  0  0  0  0  0  0
    3.7601   -1.7694    0.0000 O   0  0  0  0  0  0  0  0  0  0  0  0
    3.7601    1.2306    0.0000 N   0  0  0  0  0  0  0  0  0  0  0  0
    3.7601    0.2306    0.0000 C   0  0  0  0  0  0  0  0  0  0  0  0
    4.5691    1.8184    0.0000 C   0  0  0  0  0  0  0  0  0  0  0  0
    2.9511    1.8184    0.0000 C   0  0  0  0  0  0  0  0  0  0  0  0
    2.0280   -1.7694    0.0000 C   0  0  0  0  0  0  0  0  0  0  0  0
    4.2601    2.7694    0.0000 C   0  0  0  0  0  0  0  0  0  0  0  0
    3.2601    2.7694    0.0000 C   0  0  0  0  0  0  0  0  0  0  0  0
    2.8940   -1.2694    0.0000 C   0  0  0  0  0  0  0  0  0  0  0  0
    2.0280   -2.7694    0.0000 C   0  0  0  0  0  0  0  0  0  0  0  0
    3.9721   -0.3520    0.0000 H   0  0  0  0  0  0  0  0  0  0  0  0
    4.3707    0.3382    0.0000 H   0  0  0  0  0  0  0  0  0  0  0  0
    1.8160   -1.1868    0.0000 H   0  0  0  0  0  0  0  0  0  0  0  0
    1.4174   -1.8771    0.0000 H   0  0  0  0  0  0  0  0  0  0  0  0
    4.6245    3.2710    0.0000 H   0  0  0  0  0  0  0  0  0  0  0  0
    2.8956    3.2710    0.0000 H   0  0  0  0  0  0  0  0  0  0  0  0
    1.4080   -2.7694    0.0000 H   0  0  0  0  0  0  0  0  0  0  0  0
    2.0280   -3.3894    0.0000 H   0  0  0  0  0  0  0  0  0  0  0  0
    2.6480   -2.7694    0.0000 H   0  0  0  0  0  0  0  0  0  0  0  0
  1  6  1  0  0  0  0
  1 12  1  0  0  0  0
  2  7  2  0  0  0  0
  3  8  2  0  0  0  0
  4 12  2  0  0  0  0
  5  6  1  0  0  0  0
  5  7  1  0  0  0  0
  5  8  1  0  0  0  0
  6 14  1  0  0  0  0
  6 15  1  0  0  0  0
  7 10  1  0  0  0  0
  8 11  1  0  0  0  0
  9 12  1  0  0  0  0
  9 13  1  0  0  0  0
  9 16  1  0  0  0  0
  9 17  1  0  0  0  0
 10 11  2  0  0  0  0
 10 18  1  0  0  0  0
 11 19  1  0  0  0  0
 13 20  1  0  0  0  0
 13 21  1  0  0  0  0
 13 22  1  0  0  0  0
M  END
> <PUBCHEM_COMPOUND_CID>
227681

> <PUBCHEM_COMPOUND_CANONICALIZED>
1

> <PUBCHEM_CACTVS_COMPLEXITY>
264

> <PUBCHEM_CACTVS_HBOND_ACCEPTOR>
4

> <PUBCHEM_CACTVS_HBOND_DONOR>
0

> <PUBCHEM_CACTVS_ROTATABLE_BOND>
4

> <PUBCHEM_CACTVS_SUBSKEYS>
AAADccByOAAAAAAAAAAAAAAAAAAAAQAAAAAAAAAAAAAAAAAAAAAAHgAAAAAACACBgAYCCAMABACIACHSGACAAAAAAAAICAEIAEAAAAAAAAAIAAAABiCAAYAAAAAAAAAAAAAAAAAAAAAAAAAAAAAAAAAAAA==

> <PUBCHEM_IUPAC_OPENEYE_NAME>
(2,5-dioxopyrrol-1-yl)methyl propanoate

> <PUBCHEM_IUPAC_CAS_NAME>
propanoic acid (2,5-dioxo-1-pyrrolyl)methyl ester

> <PUBCHEM_IUPAC_NAME_MARKUP>
(2,5-dioxopyrrol-1-yl)methyl propanoate

> <PUBCHEM_IUPAC_NAME>
(2,5-dioxopyrrol-1-yl)methyl propanoate

> <PUBCHEM_IUPAC_SYSTEMATIC_NAME>
[2,5-bis(oxidanylidene)pyrrol-1-yl]methyl propanoate

> <PUBCHEM_IUPAC_TRADITIONAL_NAME>
propionic acid maleimidomethyl ester

> <PUBCHEM_IUPAC_INCHI>
InChI=1S/C8H9NO4/c1-2-8(12)13-5-9-6(10)3-4-7(9)11/h3-4H,2,5H2,1H3

> <PUBCHEM_IUPAC_INCHIKEY>
YXEWPGYLMHXLPS-UHFFFAOYSA-N

> <PUBCHEM_XLOGP3_AA>
-0.1

> <PUBCHEM_EXACT_MASS>
183.053158

> <PUBCHEM_MOLECULAR_FORMULA>
C8H9NO4

> <PUBCHEM_MOLECULAR_WEIGHT>
183.16

> <PUBCHEM_OPENEYE_CAN_SMILES>
CCC(=O)OCN1C(=O)C=CC1=O

> <PUBCHEM_OPENEYE_ISO_SMILES>
CCC(=O)OCN1C(=O)C=CC1=O

> <PUBCHEM_CACTVS_TPSA>
63.7

> <PUBCHEM_MONOISOTOPIC_WEIGHT>
183.053158

> <PUBCHEM_TOTAL_CHARGE>
0

> <PUBCHEM_HEAVY_ATOM_COUNT>
13

> <PUBCHEM_ATOM_DEF_STEREO_COUNT>
0

> <PUBCHEM_ATOM_UDEF_STEREO_COUNT>
0

> <PUBCHEM_BOND_DEF_STEREO_COUNT>
0

> <PUBCHEM_BOND_UDEF_STEREO_COUNT>
0

> <PUBCHEM_ISOTOPIC_ATOM_COUNT>
0

> <PUBCHEM_COMPONENT_COUNT>
1

> <PUBCHEM_CACTVS_TAUTO_COUNT>
-1

> <PUBCHEM_COORDINATE_TYPE>
1
5
255

$$$$
42623951
  -OEChem-02182015172D

 42 44  0     0  0  0  0  0  0999 V2000
    3.7320   -1.5670    0.0000 S   0  0  0  0  0  0  0  0  0  0  0  0
    6.3301    3.9330    0.0000 F   0  0  0  0  0  0  0  0  0  0  0  0
    2.7320   -1.5670    0.0000 O   0  0  0  0  0  0  0  0  0  0  0  0
    4.7320   -1.5670    0.0000 O   0  0  0  0  0  0  0  0  0  0  0  0
    3.7320   -2.5670    0.0000 N   0  0  0  0  0  0  0  0  0  0  0  0
    7.1962    1.4330    0.0000 N   0  0  0  0  0  0  0  0  0  0  0  0
    2.8660    0.9330    0.0000 N   0  0  0  0  0  0  0  0  0  0  0  0
    8.1424    1.1283    0.0000 N   0  0  0  0  0  0  0  0  0  0  0  0
    8.1424    2.7378    0.0000 N   0  0  0  0  0  0  0  0  0  0  0  0
    9.7260    1.9330    0.0000 N   0  0  0  0  0  0  0  0  0  0  0  0
    2.8660   -3.0670    0.0000 C   0  0  0  0  0  0  0  0  0  0  0  0
    2.0000   -3.5670    0.0000 C   0  0  0  0  0  0  0  0  0  0  0  0
    3.3660   -3.9330    0.0000 C   0  0  0  0  0  0  0  0  0  0  0  0
    2.3660   -2.2010    0.0000 C   0  0  0  0  0  0  0  0  0  0  0  0
    3.7320   -0.5670    0.0000 C   0  0  0  0  0  0  0  0  0  0  0  0
    4.5981   -0.0670    0.0000 C   0  0  0  0  0  0  0  0  0  0  0  0
    4.5981    0.9330    0.0000 C   0  0  0  0  0  0  0  0  0  0  0  0
    5.4641    1.4330    0.0000 C   0  0  0  0  0  0  0  0  0  0  0  0
    2.8660   -0.0670    0.0000 C   0  0  0  0  0  0  0  0  0  0  0  0
    3.7320    1.4330    0.0000 C   0  0  0  0  0  0  0  0  0  0  0  0
    6.3301    0.9330    0.0000 C   0  0  0  0  0  0  0  0  0  0  0  0
    5.4641    2.4330    0.0000 C   0  0  0  0  0  0  0  0  0  0  0  0
    7.1962    2.4330    0.0000 C   0  0  0  0  0  0  0  0  0  0  0  0
    6.3301    2.9330    0.0000 C   0  0  0  0  0  0  0  0  0  0  0  0
    8.7260    1.9330    0.0000 C   0  0  0  0  0  0  0  0  0  0  0  0
    4.2690   -2.8770    0.0000 H   0  0  0  0  0  0  0  0  0  0  0  0
    1.6900   -3.0300    0.0000 H   0  0  0  0  0  0  0  0  0  0  0  0
    1.4631   -3.8770    0.0000 H   0  0  0  0  0  0  0  0  0  0  0  0
    2.3100   -4.1039    0.0000 H   0  0  0  0  0  0  0  0  0  0  0  0
    2.8291   -4.2430    0.0000 H   0  0  0  0  0  0  0  0  0  0  0  0
    3.6760   -4.4700    0.0000 H   0  0  0  0  0  0  0  0  0  0  0  0
    3.9030   -3.6230    0.0000 H   0  0  0  0  0  0  0  0  0  0  0  0
    2.9030   -1.8910    0.0000 H   0  0  0  0  0  0  0  0  0  0  0  0
    2.0560   -1.6640    0.0000 H   0  0  0  0  0  0  0  0  0  0  0  0
    1.8291   -2.5110    0.0000 H   0  0  0  0  0  0  0  0  0  0  0  0
    5.1350   -0.3770    0.0000 H   0  0  0  0  0  0  0  0  0  0  0  0
    2.3291   -0.3770    0.0000 H   0  0  0  0  0  0  0  0  0  0  0  0
    6.3301    0.3130    0.0000 H   0  0  0  0  0  0  0  0  0  0  0  0
    3.7320    2.0530    0.0000 H   0  0  0  0  0  0  0  0  0  0  0  0
    4.9272    2.7430    0.0000 H   0  0  0  0  0  0  0  0  0  0  0  0
   10.0360    2.4700    0.0000 H   0  0  0  0  0  0  0  0  0  0  0  0
   10.0360    1.3961    0.0000 H   0  0  0  0  0  0  0  0  0  0  0  0
  1  3  2  0  0  0  0
  1  4  2  0  0  0  0
  1  5  1  0  0  0  0
  1 15  1  0  0  0  0
  2 24  1  0  0  0  0
  5 11  1  0  0  0  0
  5 26  1  0  0  0  0
  6  8  1  0  0  0  0
  6 21  1  0  0  0  0
  6 23  1  0  0  0  0
  7 19  1  0  0  0  0
  7 20  2  0  0  0  0
  8 25  2  0  0  0  0
  9 23  2  0  0  0  0
  9 25  1  0  0  0  0
 10 25  1  0  0  0  0
 10 41  1  0  0  0  0
 10 42  1  0  0  0  0
 11 12  1  0  0  0  0
 11 13  1  0  0  0  0
 11 14  1  0  0  0  0
 12 27  1  0  0  0  0
 12 28  1  0  0  0  0
 12 29  1  0  0  0  0
 13 30  1  0  0  0  0
 13 31  1  0  0  0  0
 13 32  1  0  0  0  0
 14 33  1  0  0  0  0
 14 34  1  0  0  0  0
 14 35  1  0  0  0  0
 15 16  1  0  0  0  0
 15 19  2  0  0  0  0
 16 17  2  0  0  0  0
 16 36  1  0  0  0  0
 17 18  1  0  0  0  0
 17 20  1  0  0  0  0
 18 21  2  0  0  0  0
 18 22  1  0  0  0  0
 19 37  1  0  0  0  0
 20 39  1  0  0  0  0
 21 38  1  0  0  0  0
 22 24  2  0  0  0  0
 22 40  1  0  0  0  0
 23 24  1  0  0  0  0
M  END
> <PUBCHEM_COMPOUND_CID>
42623951

> <PUBCHEM_COMPOUND_CANONICALIZED>
1

> <PUBCHEM_CACTVS_COMPLEXITY>
578

> <PUBCHEM_CACTVS_HBOND_ACCEPTOR>
8

> <PUBCHEM_CACTVS_HBOND_DONOR>
2

> <PUBCHEM_CACTVS_ROTATABLE_BOND>
4

> <PUBCHEM_CACTVS_SUBSKEYS>
AAADceBzsQBAAAAAAAAAAAAAAAAAAWAAAAAsWAAAAAAAAFgB+AAAHQQYQAAADIjBWww/sZ5IEAKiAjJnZHDShDsxgKAV2DwoRJiIKOLAmZGEoAh4mALIyCcQgIAOgAAAAAAAAAAAAAAAAAAAAAAAAAAAAA==

> <PUBCHEM_IUPAC_OPENEYE_NAME>
5-(2-amino-8-fluoro-[1,2,4]triazolo[1,5-a]pyridin-6-yl)-N-tert-butyl-pyridine-3-sulfonamide

> <PUBCHEM_IUPAC_CAS_NAME>
5-(2-amino-8-fluoro-[1,2,4]triazolo[1,5-a]pyridin-6-yl)-N-tert-butyl-3-pyridinesulfonamide

> <PUBCHEM_IUPAC_NAME_MARKUP>
5-(2-amino-8-fluoro-[1,2,4]triazolo[1,5-a]pyridin-6-yl)-<I>N</I>-<I>tert</I>-butylpyridine-3-sulfonamide

> <PUBCHEM_IUPAC_NAME>
5-(2-amino-8-fluoro-[1,2,4]triazolo[1,5-a]pyridin-6-yl)-N-tert-butylpyridine-3-sulfonamide

> <PUBCHEM_IUPAC_SYSTEMATIC_NAME>
5-(2-azanyl-8-fluoranyl-[1,2,4]triazolo[1,5-a]pyridin-6-yl)-N-tert-butyl-pyridine-3-sulfonamide

> <PUBCHEM_IUPAC_TRADITIONAL_NAME>
5-(2-amino-8-fluoro-[1,2,4]triazolo[1,5-a]pyridin-6-yl)-N-tert-butyl-pyridine-3-sulfonamide

> <PUBCHEM_IUPAC_INCHI>
InChI=1S/C15H17FN6O2S/c1-15(2,3)21-25(23,24)11-4-9(6-18-7-11)10-5-12(16)13-19-14(17)20-22(13)8-10/h4-8,21H,1-3H3,(H2,17,20)

> <PUBCHEM_IUPAC_INCHIKEY>
RXRZPHQBTHQXSV-UHFFFAOYSA-N

> <PUBCHEM_XLOGP3_AA>
1

> <PUBCHEM_EXACT_MASS>
364.111773

> <PUBCHEM_MOLECULAR_FORMULA>
C15H17FN6O2S

> <PUBCHEM_MOLECULAR_WEIGHT>
364.4

> <PUBCHEM_OPENEYE_CAN_SMILES>
CC(C)(C)NS(=O)(=O)C1=CN=CC(=C1)C2=CN3C(=NC(=N3)N)C(=C2)F

> <PUBCHEM_OPENEYE_ISO_SMILES>
CC(C)(C)NS(=O)(=O)C1=CN=CC(=C1)C2=CN3C(=NC(=N3)N)C(=C2)F

> <PUBCHEM_CACTVS_TPSA>
124

> <PUBCHEM_MONOISOTOPIC_WEIGHT>
364.111773

> <PUBCHEM_TOTAL_CHARGE>
0

> <PUBCHEM_HEAVY_ATOM_COUNT>
25

> <PUBCHEM_ATOM_DEF_STEREO_COUNT>
0

> <PUBCHEM_ATOM_UDEF_STEREO_COUNT>
0

> <PUBCHEM_BOND_DEF_STEREO_COUNT>
0

> <PUBCHEM_BOND_UDEF_STEREO_COUNT>
0

> <PUBCHEM_ISOTOPIC_ATOM_COUNT>
0

> <PUBCHEM_COMPONENT_COUNT>
1

> <PUBCHEM_CACTVS_TAUTO_COUNT>
-1

> <PUBCHEM_COORDINATE_TYPE>
1
5
255

> <PUBCHEM_BONDANNOTATIONS>
15  16  8
15  19  8
16  17  8
17  20  8
18  21  8
18  22  8
22  24  8
23  24  8
6  21  8
6  23  8
6  8  8
7  19  8
7  20  8
8  25  8
9  23  8
9  25  8

$$$$
53469448
  -OEChem-02182015172D

 53 57  0     0  0  0  0  0  0999 V2000
    7.2626    6.1215    0.0000 F   0  0  0  0  0  0  0  0  0  0  0  0
    5.8651    5.9051    0.0000 F   0  0  0  0  0  0  0  0  0  0  0  0
    7.4790    4.7240    0.0000 F   0  0  0  0  0  0  0  0  0  0  0  0
    4.7133    1.1717    0.0000 O   0  0  0  0  0  0  0  0  0  0  0  0
    6.1110    0.1488    0.0000 N   0  0  0  0  0  0  0  0  0  0  0  0
    4.6783   -5.1710    0.0000 N   0  0  0  0  0  0  0  0  0  0  0  0
    2.8660   -5.3663    0.0000 N   0  0  0  0  0  0  0  0  0  0  0  0
    2.0000   -3.8663    0.0000 N   0  0  0  0  0  0  0  0  0  0  0  0
    2.8660   -2.3663    0.0000 N   0  0  0  0  0  0  0  0  0  0  0  0
    7.1859   -1.0492    0.0000 C   0  0  0  0  0  0  0  0  0  0  0  0
    6.2781   -1.4543    0.0000 C   0  0  0  0  0  0  0  0  0  0  0  0
    7.0828   -0.0604    0.0000 C   0  0  0  0  0  0  0  0  0  0  0  0
    5.6103   -0.7100    0.0000 C   0  0  0  0  0  0  0  0  0  0  0  0
    5.9674   -2.4048    0.0000 C   0  0  0  0  0  0  0  0  0  0  0  0
    4.9889   -2.6110    0.0000 C   0  0  0  0  0  0  0  0  0  0  0  0
    4.6318   -0.9162    0.0000 C   0  0  0  0  0  0  0  0  0  0  0  0
    4.6783   -3.5615    0.0000 C   0  0  0  0  0  0  0  0  0  0  0  0
    5.7074    1.0637    0.0000 C   0  0  0  0  0  0  0  0  0  0  0  0
    4.3211   -1.8667    0.0000 C   0  0  0  0  0  0  0  0  0  0  0  0
    3.7320   -3.8663    0.0000 C   0  0  0  0  0  0  0  0  0  0  0  0
    6.2980    1.8707    0.0000 C   0  0  0  0  0  0  0  0  0  0  0  0
    5.2619   -4.3663    0.0000 C   0  0  0  0  0  0  0  0  0  0  0  0
    3.7320   -4.8663    0.0000 C   0  0  0  0  0  0  0  0  0  0  0  0
    5.8944    2.7856    0.0000 C   0  0  0  0  0  0  0  0  0  0  0  0
    2.8660   -3.3663    0.0000 C   0  0  0  0  0  0  0  0  0  0  0  0
    4.9889   -6.1215    0.0000 C   0  0  0  0  0  0  0  0  0  0  0  0
    6.4850    3.5926    0.0000 C   0  0  0  0  0  0  0  0  0  0  0  0
    4.9003    2.8936    0.0000 C   0  0  0  0  0  0  0  0  0  0  0  0
    6.0815    4.5076    0.0000 C   0  0  0  0  0  0  0  0  0  0  0  0
    2.0000   -4.8663    0.0000 C   0  0  0  0  0  0  0  0  0  0  0  0
    4.4967    3.8086    0.0000 C   0  0  0  0  0  0  0  0  0  0  0  0
    5.0873    4.6155    0.0000 C   0  0  0  0  0  0  0  0  0  0  0  0
    6.6720    5.3145    0.0000 C   0  0  0  0  0  0  0  0  0  0  0  0
    7.3776   -1.6388    0.0000 H   0  0  0  0  0  0  0  0  0  0  0  0
    7.7924   -0.9204    0.0000 H   0  0  0  0  0  0  0  0  0  0  0  0
    7.7028   -0.0613    0.0000 H   0  0  0  0  0  0  0  0  0  0  0  0
    7.1489    0.5560    0.0000 H   0  0  0  0  0  0  0  0  0  0  0  0
    6.3815   -2.8663    0.0000 H   0  0  0  0  0  0  0  0  0  0  0  0
    4.2177   -0.4547    0.0000 H   0  0  0  0  0  0  0  0  0  0  0  0
    3.7144   -1.9946    0.0000 H   0  0  0  0  0  0  0  0  0  0  0  0
    6.7272    1.4232    0.0000 H   0  0  0  0  0  0  0  0  0  0  0  0
    6.8132    2.2156    0.0000 H   0  0  0  0  0  0  0  0  0  0  0  0
    5.8819   -4.3663    0.0000 H   0  0  0  0  0  0  0  0  0  0  0  0
    4.3996   -6.3141    0.0000 H   0  0  0  0  0  0  0  0  0  0  0  0
    5.1815   -6.7108    0.0000 H   0  0  0  0  0  0  0  0  0  0  0  0
    5.5783   -5.9289    0.0000 H   0  0  0  0  0  0  0  0  0  0  0  0
    7.1014    3.5257    0.0000 H   0  0  0  0  0  0  0  0  0  0  0  0
    4.5341    2.3933    0.0000 H   0  0  0  0  0  0  0  0  0  0  0  0
    1.4631   -5.1763    0.0000 H   0  0  0  0  0  0  0  0  0  0  0  0
    3.8804    3.8755    0.0000 H   0  0  0  0  0  0  0  0  0  0  0  0
    2.3291   -2.0563    0.0000 H   0  0  0  0  0  0  0  0  0  0  0  0
    3.4030   -2.0563    0.0000 H   0  0  0  0  0  0  0  0  0  0  0  0
    4.8371    5.1828    0.0000 H   0  0  0  0  0  0  0  0  0  0  0  0
  1 33  1  0  0  0  0
  2 33  1  0  0  0  0
  3 33  1  0  0  0  0
  4 18  2  0  0  0  0
  5 12  1  0  0  0  0
  5 13  1  0  0  0  0
  5 18  1  0  0  0  0
  6 22  1  0  0  0  0
  6 23  1  0  0  0  0
  6 26  1  0  0  0  0
  7 23  2  0  0  0  0
  7 30  1  0  0  0  0
  8 25  1  0  0  0  0
  8 30  2  0  0  0  0
  9 25  1  0  0  0  0
  9 51  1  0  0  0  0
  9 52  1  0  0  0  0
 10 11  1  0  0  0  0
 10 12  1  0  0  0  0
 10 34  1  0  0  0  0
 10 35  1  0  0  0  0
 11 13  2  0  0  0  0
 11 14  1  0  0  0  0
 12 36  1  0  0  0  0
 12 37  1  0  0  0  0
 13 16  1  0  0  0  0
 14 15  2  0  0  0  0
 14 38  1  0  0  0  0
 15 17  1  0  0  0  0
 15 19  1  0  0  0  0
 16 19  2  0  0  0  0
 16 39  1  0  0  0  0
 17 20  1  0  0  0  0
 17 22  2  0  0  0  0
 18 21  1  0  0  0  0
 19 40  1  0  0  0  0
 20 23  1  0  0  0  0
 20 25  2  0  0  0  0
 21 24  1  0  0  0  0
 21 41  1  0  0  0  0
 21 42  1  0  0  0  0
 22 43  1  0  0  0  0
 24 27  2  0  0  0  0
 24 28  1  0  0  0  0
 26 44  1  0  0  0  0
 26 45  1  0  0  0  0
 26 46  1  0  0  0  0
 27 29  1  0  0  0  0
 27 47  1  0  0  0  0
 28 31  2  0  0  0  0
 28 48  1  0  0  0  0
 29 32  2  0  0  0  0
 29 33  1  0  0  0  0
 30 49  1  0  0  0  0
 31 32  1  0  0  0  0
 31 50  1  0  0  0  0
 32 53  1  0  0  0  0
M  END
> <PUBCHEM_COMPOUND_CID>
53469448

> <PUBCHEM_COMPOUND_CANONICALIZED>
1

> <PUBCHEM_CACTVS_COMPLEXITY>
721

> <PUBCHEM_CACTVS_HBOND_ACCEPTOR>
7

> <PUBCHEM_CACTVS_HBOND_DONOR>
1

> <PUBCHEM_CACTVS_ROTATABLE_BOND>
3

> <PUBCHEM_CACTVS_SUBSKEYS>
AAADceB7oYAAAAAAAAAAAAAAAAAAAWLAAAA8YIAAAAAAAFgB/AAAHwAQAAAADAjBmxQ/8N9MEACoAjd3dACCgCkxAqAJ2CEoZJiIKHLA3dGEJAhohgLIyCcYiMCOiAACAAACAAAQAAQAAAQAAAAAAAAAAA==

> <PUBCHEM_IUPAC_OPENEYE_NAME>
1-[5-(4-amino-7-methyl-pyrrolo[2,3-d]pyrimidin-5-yl)indolin-1-yl]-2-[3-(trifluoromethyl)phenyl]ethanone

> <PUBCHEM_IUPAC_CAS_NAME>
1-[5-(4-amino-7-methyl-5-pyrrolo[2,3-d]pyrimidinyl)-2,3-dihydroindol-1-yl]-2-[3-(trifluoromethyl)phenyl]ethanone

> <PUBCHEM_IUPAC_NAME_MARKUP>
1-[5-(4-amino-7-methylpyrrolo[2,3-d]pyrimidin-5-yl)-2,3-dihydroindol-1-yl]-2-[3-(trifluoromethyl)phenyl]ethanone

> <PUBCHEM_IUPAC_NAME>
1-[5-(4-amino-7-methylpyrrolo[2,3-d]pyrimidin-5-yl)-2,3-dihydroindol-1-yl]-2-[3-(trifluoromethyl)phenyl]ethanone

> <PUBCHEM_IUPAC_SYSTEMATIC_NAME>
1-[5-(4-azanyl-7-methyl-pyrrolo[2,3-d]pyrimidin-5-yl)-2,3-dihydroindol-1-yl]-2-[3-(trifluoromethyl)phenyl]ethanone

> <PUBCHEM_IUPAC_TRADITIONAL_NAME>
1-[5-(4-amino-7-methyl-pyrrolo[2,3-d]pyrimidin-5-yl)indolin-1-yl]-2-[3-(trifluoromethyl)phenyl]ethanone

> <PUBCHEM_IUPAC_INCHI>
InChI=1S/C24H20F3N5O/c1-31-12-18(21-22(28)29-13-30-23(21)31)15-5-6-19-16(11-15)7-8-32(19)20(33)10-14-3-2-4-17(9-14)24(25,26)27/h2-6,9,11-13H,7-8,10H2,1H3,(H2,28,29,30)

> <PUBCHEM_IUPAC_INCHIKEY>
SIXVRXARNAVBTC-UHFFFAOYSA-N

> <PUBCHEM_XLOGP3_AA>
3.8

> <PUBCHEM_EXACT_MASS>
451.161995

> <PUBCHEM_MOLECULAR_FORMULA>
C24H20F3N5O

> <PUBCHEM_MOLECULAR_WEIGHT>
451.4

> <PUBCHEM_OPENEYE_CAN_SMILES>
CN1C=C(C2=C(N=CN=C21)N)C3=CC4=C(C=C3)N(CC4)C(=O)CC5=CC(=CC=C5)C(F)(F)F

> <PUBCHEM_OPENEYE_ISO_SMILES>
CN1C=C(C2=C(N=CN=C21)N)C3=CC4=C(C=C3)N(CC4)C(=O)CC5=CC(=CC=C5)C(F)(F)F

> <PUBCHEM_CACTVS_TPSA>
77

> <PUBCHEM_MONOISOTOPIC_WEIGHT>
451.161995

> <PUBCHEM_TOTAL_CHARGE>
0

> <PUBCHEM_HEAVY_ATOM_COUNT>
33

> <PUBCHEM_ATOM_DEF_STEREO_COUNT>
0

> <PUBCHEM_ATOM_UDEF_STEREO_COUNT>
0

> <PUBCHEM_BOND_DEF_STEREO_COUNT>
0

> <PUBCHEM_BOND_UDEF_STEREO_COUNT>
0

> <PUBCHEM_ISOTOPIC_ATOM_COUNT>
0

> <PUBCHEM_COMPONENT_COUNT>
1

> <PUBCHEM_CACTVS_TAUTO_COUNT>
-1

> <PUBCHEM_COORDINATE_TYPE>
1
5
255

> <PUBCHEM_BONDANNOTATIONS>
11  13  8
11  14  8
13  16  8
14  15  8
15  19  8
16  19  8
17  20  8
17  22  8
20  23  8
20  25  8
24  27  8
24  28  8
27  29  8
28  31  8
29  32  8
31  32  8
6  22  8
6  23  8
7  23  8
7  30  8
8  25  8
8  30  8

$$$$
35397514
  -OEChem-02182015172D

 44 46  0     0  0  0  0  0  0999 V2000
    3.0000    4.0000    0.0000 Br  0  0  0  0  0  0  0  0  0  0  0  0
    3.0000   -0.0000    0.0000 S   0  0  0  0  0  0  0  0  0  0  0  0
    3.0000   -3.0000    0.0000 O   0  0  0  0  0  0  0  0  0  0  0  0
    8.1279   -2.0000    0.0000 O   0  0  0  0  0  0  0  0  0  0  0  0
    2.0000   -0.0000    0.0000 O   0  0  0  0  0  0  0  0  0  0  0  0
    4.0000    0.0000    0.0000 O   0  0  0  0  0  0  0  0  0  0  0  0
    6.5443   -1.1953    0.0000 N   0  0  0  0  0  0  0  0  0  0  0  0
    6.5443   -2.8047    0.0000 N   0  0  0  0  0  0  0  0  0  0  0  0
    3.0000   -1.0000    0.0000 N   0  0  0  0  0  0  0  0  0  0  0  0
    5.5981   -1.5000    0.0000 C   0  0  0  0  0  0  0  0  0  0  0  0
    5.5981   -2.5000    0.0000 C   0  0  0  0  0  0  0  0  0  0  0  0
    3.8660   -1.5000    0.0000 C   0  0  0  0  0  0  0  0  0  0  0  0
    4.7320   -1.0000    0.0000 C   0  0  0  0  0  0  0  0  0  0  0  0
    7.1279   -2.0000    0.0000 C   0  0  0  0  0  0  0  0  0  0  0  0
    4.7320   -3.0000    0.0000 C   0  0  0  0  0  0  0  0  0  0  0  0
    3.8660   -2.5000    0.0000 C   0  0  0  0  0  0  0  0  0  0  0  0
    6.8550   -0.2447    0.0000 C   0  0  0  0  0  0  0  0  0  0  0  0
    6.8550   -3.7552    0.0000 C   0  0  0  0  0  0  0  0  0  0  0  0
    3.0000    1.0000    0.0000 C   0  0  0  0  0  0  0  0  0  0  0  0
    3.8660    1.5000    0.0000 C   0  0  0  0  0  0  0  0  0  0  0  0
    2.1340    1.5000    0.0000 C   0  0  0  0  0  0  0  0  0  0  0  0
    3.8660    2.5000    0.0000 C   0  0  0  0  0  0  0  0  0  0  0  0
    4.7320    1.0000    0.0000 C   0  0  0  0  0  0  0  0  0  0  0  0
    2.1340    2.5000    0.0000 C   0  0  0  0  0  0  0  0  0  0  0  0
    3.0000    3.0000    0.0000 C   0  0  0  0  0  0  0  0  0  0  0  0
    3.0000   -4.0000    0.0000 C   0  0  0  0  0  0  0  0  0  0  0  0
    4.7320   -0.3800    0.0000 H   0  0  0  0  0  0  0  0  0  0  0  0
    4.7320   -3.6200    0.0000 H   0  0  0  0  0  0  0  0  0  0  0  0
    2.4631   -1.3100    0.0000 H   0  0  0  0  0  0  0  0  0  0  0  0
    7.4443   -0.4374    0.0000 H   0  0  0  0  0  0  0  0  0  0  0  0
    7.0476    0.3446    0.0000 H   0  0  0  0  0  0  0  0  0  0  0  0
    6.2656   -0.0521    0.0000 H   0  0  0  0  0  0  0  0  0  0  0  0
    6.2656   -3.9479    0.0000 H   0  0  0  0  0  0  0  0  0  0  0  0
    7.0476   -4.3446    0.0000 H   0  0  0  0  0  0  0  0  0  0  0  0
    7.4443   -3.5626    0.0000 H   0  0  0  0  0  0  0  0  0  0  0  0
    1.5970    1.1900    0.0000 H   0  0  0  0  0  0  0  0  0  0  0  0
    4.4030    2.8100    0.0000 H   0  0  0  0  0  0  0  0  0  0  0  0
    4.4220    0.4631    0.0000 H   0  0  0  0  0  0  0  0  0  0  0  0
    5.2690    0.6900    0.0000 H   0  0  0  0  0  0  0  0  0  0  0  0
    5.0420    1.5369    0.0000 H   0  0  0  0  0  0  0  0  0  0  0  0
    1.5970    2.8100    0.0000 H   0  0  0  0  0  0  0  0  0  0  0  0
    2.3800   -4.0000    0.0000 H   0  0  0  0  0  0  0  0  0  0  0  0
    3.0000   -4.6200    0.0000 H   0  0  0  0  0  0  0  0  0  0  0  0
    3.6200   -4.0000    0.0000 H   0  0  0  0  0  0  0  0  0  0  0  0
  1 25  1  0  0  0  0
  2  5  2  0  0  0  0
  2  6  2  0  0  0  0
  2  9  1  0  0  0  0
  2 19  1  0  0  0  0
  3 16  1  0  0  0  0
  3 26  1  0  0  0  0
  4 14  2  0  0  0  0
  7 10  1  0  0  0  0
  7 14  1  0  0  0  0
  7 17  1  0  0  0  0
  8 11  1  0  0  0  0
  8 14  1  0  0  0  0
  8 18  1  0  0  0  0
  9 12  1  0  0  0  0
  9 29  1  0  0  0  0
 10 11  2  0  0  0  0
 10 13  1  0  0  0  0
 11 15  1  0  0  0  0
 12 13  2  0  0  0  0
 12 16  1  0  0  0  0
 13 27  1  0  0  0  0
 15 16  2  0  0  0  0
 15 28  1  0  0  0  0
 17 30  1  0  0  0  0
 17 31  1  0  0  0  0
 17 32  1  0  0  0  0
 18 33  1  0  0  0  0
 18 34  1  0  0  0  0
 18 35  1  0  0  0  0
 19 20  2  0  0  0  0
 19 21  1  0  0  0  0
 20 22  1  0  0  0  0
 20 23  1  0  0  0  0
 21 24  2  0  0  0  0
 21 36  1  0  0  0  0
 22 25  2  0  0  0  0
 22 37  1  0  0  0  0
 23 38  1  0  0  0  0
 23 39  1  0  0  0  0
 23 40  1  0  0  0  0
 24 25  1  0  0  0  0
 24 41  1  0  0  0  0
 26 42  1  0  0  0  0
 26 43  1  0  0  0  0
 26 44  1  0  0  0  0
M  END
> <PUBCHEM_COMPOUND_CID>
35397514

> <PUBCHEM_COMPOUND_CANONICALIZED>
1

> <PUBCHEM_CACTVS_COMPLEXITY>
640

> <PUBCHEM_CACTVS_HBOND_ACCEPTOR>
5

> <PUBCHEM_CACTVS_HBOND_DONOR>
1

> <PUBCHEM_CACTVS_ROTATABLE_BOND>
4

> <PUBCHEM_CACTVS_SUBSKEYS>
AAADceB7OABAEAAAAAAAAAAAAAAAAWAAAAAwYAAAAAAAAFgBQAAAHgRQQAABrAyB2AYzx4NABAKIAiRCUHDCCBAhIgQIiBgPfKiOZiLE8duVMChu1htI6jew0AMOAEGAEgQEECAAgwAkCAggQAAAAAAAAA==

> <PUBCHEM_IUPAC_OPENEYE_NAME>
4-bromo-N-(6-methoxy-1,3-dimethyl-2-oxo-benzimidazol-5-yl)-2-methyl-benzenesulfonamide

> <PUBCHEM_IUPAC_CAS_NAME>
4-bromo-N-(6-methoxy-1,3-dimethyl-2-oxo-5-benzimidazolyl)-2-methylbenzenesulfonamide

> <PUBCHEM_IUPAC_NAME_MARKUP>
4-bromo-<I>N</I>-(6-methoxy-1,3-dimethyl-2-oxobenzimidazol-5-yl)-2-methylbenzenesulfonamide

> <PUBCHEM_IUPAC_NAME>
4-bromo-N-(6-methoxy-1,3-dimethyl-2-oxobenzimidazol-5-yl)-2-methylbenzenesulfonamide

> <PUBCHEM_IUPAC_SYSTEMATIC_NAME>
4-bromanyl-N-(6-methoxy-1,3-dimethyl-2-oxidanylidene-benzimidazol-5-yl)-2-methyl-benzenesulfonamide

> <PUBCHEM_IUPAC_TRADITIONAL_NAME>
4-bromo-N-(2-keto-6-methoxy-1,3-dimethyl-benzimidazol-5-yl)-2-methyl-benzenesulfonamide

> <PUBCHEM_IUPAC_INCHI>
InChI=1S/C17H18BrN3O4S/c1-10-7-11(18)5-6-16(10)26(23,24)19-12-8-13-14(9-15(12)25-4)21(3)17(22)20(13)2/h5-9,19H,1-4H3

> <PUBCHEM_IUPAC_INCHIKEY>
YUNQZQREIHWDQT-UHFFFAOYSA-N

> <PUBCHEM_XLOGP3_AA>
2.5

> <PUBCHEM_EXACT_MASS>
439.02014

> <PUBCHEM_MOLECULAR_FORMULA>
C17H18BrN3O4S

> <PUBCHEM_MOLECULAR_WEIGHT>
440.3

> <PUBCHEM_OPENEYE_CAN_SMILES>
CC1=C(C=CC(=C1)Br)S(=O)(=O)NC2=CC3=C(C=C2OC)N(C(=O)N3C)C

> <PUBCHEM_OPENEYE_ISO_SMILES>
CC1=C(C=CC(=C1)Br)S(=O)(=O)NC2=CC3=C(C=C2OC)N(C(=O)N3C)C

> <PUBCHEM_CACTVS_TPSA>
87.3

> <PUBCHEM_MONOISOTOPIC_WEIGHT>
439.02014

> <PUBCHEM_TOTAL_CHARGE>
0

> <PUBCHEM_HEAVY_ATOM_COUNT>
26

> <PUBCHEM_ATOM_DEF_STEREO_COUNT>
0

> <PUBCHEM_ATOM_UDEF_STEREO_COUNT>
0

> <PUBCHEM_BOND_DEF_STEREO_COUNT>
0

> <PUBCHEM_BOND_UDEF_STEREO_COUNT>
0

> <PUBCHEM_ISOTOPIC_ATOM_COUNT>
0

> <PUBCHEM_COMPONENT_COUNT>
1

> <PUBCHEM_CACTVS_TAUTO_COUNT>
-1

> <PUBCHEM_COORDINATE_TYPE>
1
5
255

> <PUBCHEM_BONDANNOTATIONS>
10  11  8
10  13  8
11  15  8
12  13  8
12  16  8
15  16  8
19  20  8
19  21  8
20  22  8
21  24  8
22  25  8
24  25  8
7  10  8
7  14  8
8  11  8
8  14  8

$$$$
56645356
  -OEChem-02182015172D

 65 68  0     1  0  0  0  0  0999 V2000
    8.9282    3.2500    0.0000 F   0  0  0  0  0  0  0  0  0  0  0  0
    5.4641    1.2500    0.0000 O   0  0  0  0  0  0  0  0  0  0  0  0
    8.0622   -1.2500    0.0000 O   0  0  0  0  0  0  0  0  0  0  0  0
    4.5981   -0.2500    0.0000 N   0  0  0  0  0  0  0  0  0  0  0  0
    7.1962    0.2500    0.0000 N   0  0  0  0  0  0  0  0  0  0  0  0
    9.7942   -0.2500    0.0000 N   0  0  0  0  0  0  0  0  0  0  0  0
   11.3769   -0.5864    0.0000 N   0  0  0  0  0  0  0  0  0  0  0  0
    3.7320    0.2500    0.0000 C   0  0  0  0  0  0  0  0  0  0  0  0
    3.7320    1.2500    0.0000 C   0  0  0  0  0  0  0  0  0  0  0  0
    2.8660   -0.2500    0.0000 C   0  0  0  0  0  0  0  0  0  0  0  0
    2.8660    1.7500    0.0000 C   0  0  0  0  0  0  0  0  0  0  0  0
    2.0000    0.2500    0.0000 C   0  0  0  0  0  0  0  0  0  0  0  0
    2.0000    1.2500    0.0000 C   0  0  0  0  0  0  0  0  0  0  0  0
    6.3301   -0.2500    0.0000 C   0  0  3  0  0  0  0  0  0  0  0  0
    5.4641    0.2500    0.0000 C   0  0  0  0  0  0  0  0  0  0  0  0
    6.3301   -1.2500    0.0000 C   0  0  0  0  0  0  0  0  0  0  0  0
    5.4641   -1.7500    0.0000 C   0  0  0  0  0  0  0  0  0  0  0  0
    7.1962    1.2500    0.0000 C   0  0  0  0  0  0  0  0  0  0  0  0
    8.0622   -0.2500    0.0000 C   0  0  0  0  0  0  0  0  0  0  0  0
    7.1962   -1.7500    0.0000 C   0  0  0  0  0  0  0  0  0  0  0  0
    8.9282    0.2500    0.0000 C   0  0  0  0  0  0  0  0  0  0  0  0
    5.4641   -2.7500    0.0000 C   0  0  0  0  0  0  0  0  0  0  0  0
    4.4641   -1.7500    0.0000 C   0  0  0  0  0  0  0  0  0  0  0  0
    7.1962   -2.7500    0.0000 C   0  0  0  0  0  0  0  0  0  0  0  0
    8.0622    1.7500    0.0000 C   0  0  0  0  0  0  0  0  0  0  0  0
    6.3301    1.7500    0.0000 C   0  0  0  0  0  0  0  0  0  0  0  0
    6.3301   -3.2500    0.0000 C   0  0  0  0  0  0  0  0  0  0  0  0
    8.0622    2.7500    0.0000 C   0  0  0  0  0  0  0  0  0  0  0  0
    6.3301    2.7500    0.0000 C   0  0  0  0  0  0  0  0  0  0  0  0
   10.7078    0.1567    0.0000 C   0  0  0  0  0  0  0  0  0  0  0  0
    9.8988   -1.2445    0.0000 C   0  0  0  0  0  0  0  0  0  0  0  0
    7.1962    3.2500    0.0000 C   0  0  0  0  0  0  0  0  0  0  0  0
   10.8769   -1.4524    0.0000 C   0  0  0  0  0  0  0  0  0  0  0  0
   10.9157    1.1349    0.0000 C   0  0  0  0  0  0  0  0  0  0  0  0
    3.7320   -0.3700    0.0000 H   0  0  0  0  0  0  0  0  0  0  0  0
    4.3426    1.1423    0.0000 H   0  0  0  0  0  0  0  0  0  0  0  0
    3.9441    1.8326    0.0000 H   0  0  0  0  0  0  0  0  0  0  0  0
    2.4675   -0.7249    0.0000 H   0  0  0  0  0  0  0  0  0  0  0  0
    3.2646   -0.7249    0.0000 H   0  0  0  0  0  0  0  0  0  0  0  0
    3.2646    2.2250    0.0000 H   0  0  0  0  0  0  0  0  0  0  0  0
    2.4675    2.2250    0.0000 H   0  0  0  0  0  0  0  0  0  0  0  0
    1.3894    0.3577    0.0000 H   0  0  0  0  0  0  0  0  0  0  0  0
    1.7880   -0.3326    0.0000 H   0  0  0  0  0  0  0  0  0  0  0  0
    1.7880    1.8326    0.0000 H   0  0  0  0  0  0  0  0  0  0  0  0
    1.3894    1.1423    0.0000 H   0  0  0  0  0  0  0  0  0  0  0  0
    4.2882   -0.7870    0.0000 H   0  0  0  0  0  0  0  0  0  0  0  0
    6.8671   -0.5600    0.0000 H   0  0  0  0  0  0  0  0  0  0  0  0
    7.7331   -1.4400    0.0000 H   0  0  0  0  0  0  0  0  0  0  0  0
    9.3267    0.7249    0.0000 H   0  0  0  0  0  0  0  0  0  0  0  0
    8.5297    0.7249    0.0000 H   0  0  0  0  0  0  0  0  0  0  0  0
    4.9272   -3.0600    0.0000 H   0  0  0  0  0  0  0  0  0  0  0  0
    4.4641   -1.1300    0.0000 H   0  0  0  0  0  0  0  0  0  0  0  0
    3.8441   -1.7500    0.0000 H   0  0  0  0  0  0  0  0  0  0  0  0
    4.4641   -2.3700    0.0000 H   0  0  0  0  0  0  0  0  0  0  0  0
    7.7331   -3.0600    0.0000 H   0  0  0  0  0  0  0  0  0  0  0  0
    8.5991    1.4400    0.0000 H   0  0  0  0  0  0  0  0  0  0  0  0
    5.7932    1.4400    0.0000 H   0  0  0  0  0  0  0  0  0  0  0  0
    6.3301   -3.8700    0.0000 H   0  0  0  0  0  0  0  0  0  0  0  0
    5.7932    3.0600    0.0000 H   0  0  0  0  0  0  0  0  0  0  0  0
    9.4380   -1.6594    0.0000 H   0  0  0  0  0  0  0  0  0  0  0  0
    7.1962    3.8700    0.0000 H   0  0  0  0  0  0  0  0  0  0  0  0
   11.1291   -2.0188    0.0000 H   0  0  0  0  0  0  0  0  0  0  0  0
   11.5221    1.0060    0.0000 H   0  0  0  0  0  0  0  0  0  0  0  0
   11.0446    1.7413    0.0000 H   0  0  0  0  0  0  0  0  0  0  0  0
   10.3092    1.2638    0.0000 H   0  0  0  0  0  0  0  0  0  0  0  0
  1 28  1  0  0  0  0
  2 15  2  0  0  0  0
  3 19  2  0  0  0  0
  4  8  1  0  0  0  0
  4 15  1  0  0  0  0
  4 46  1  0  0  0  0
  5 14  1  0  0  0  0
  5 18  1  0  0  0  0
  5 19  1  0  0  0  0
  6 21  1  0  0  0  0
  6 30  1  0  0  0  0
  6 31  1  0  0  0  0
  7 30  2  0  0  0  0
  7 33  1  0  0  0  0
  8  9  1  0  0  0  0
  8 10  1  0  0  0  0
  8 35  1  0  0  0  0
  9 11  1  0  0  0  0
  9 36  1  0  0  0  0
  9 37  1  0  0  0  0
 10 12  1  0  0  0  0
 10 38  1  0  0  0  0
 10 39  1  0  0  0  0
 11 13  1  0  0  0  0
 11 40  1  0  0  0  0
 11 41  1  0  0  0  0
 12 13  1  0  0  0  0
 12 42  1  0  0  0  0
 12 43  1  0  0  0  0
 13 44  1  0  0  0  0
 13 45  1  0  0  0  0
 14 15  1  0  0  0  0
 14 16  1  0  0  0  0
 14 47  1  0  0  0  0
 16 17  1  0  0  0  0
 16 20  2  0  0  0  0
 17 22  2  0  0  0  0
 17 23  1  0  0  0  0
 18 25  2  0  0  0  0
 18 26  1  0  0  0  0
 19 21  1  0  0  0  0
 20 24  1  0  0  0  0
 20 48  1  0  0  0  0
 21 49  1  0  0  0  0
 21 50  1  0  0  0  0
 22 27  1  0  0  0  0
 22 51  1  0  0  0  0
 23 52  1  0  0  0  0
 23 53  1  0  0  0  0
 23 54  1  0  0  0  0
 24 27  2  0  0  0  0
 24 55  1  0  0  0  0
 25 28  1  0  0  0  0
 25 56  1  0  0  0  0
 26 29  2  0  0  0  0
 26 57  1  0  0  0  0
 27 58  1  0  0  0  0
 28 32  2  0  0  0  0
 29 32  1  0  0  0  0
 29 59  1  0  0  0  0
 30 34  1  0  0  0  0
 31 33  2  0  0  0  0
 31 60  1  0  0  0  0
 32 61  1  0  0  0  0
 33 62  1  0  0  0  0
 34 63  1  0  0  0  0
 34 64  1  0  0  0  0
 34 65  1  0  0  0  0
M  END
> <PUBCHEM_COMPOUND_CID>
56645356

> <PUBCHEM_COMPOUND_CANONICALIZED>
1

> <PUBCHEM_CACTVS_COMPLEXITY>
686

> <PUBCHEM_CACTVS_HBOND_ACCEPTOR>
4

> <PUBCHEM_CACTVS_HBOND_DONOR>
1

> <PUBCHEM_CACTVS_ROTATABLE_BOND>
7

> <PUBCHEM_CACTVS_SUBSKEYS>
AAADceB7sQAAAAAAAAAAAAAAAAAAAWAAAAAwYMAAAAAAAAAB0AAAHwAQAAAADCjBmww/0JfMEACoAjd3dACCgC0xEqAJyIGYdIiIaDLAnbGUIAholgLIyCcYiICOgAAAAAAQAAAAAAAAACAAAAAAAAAAAA==

> <PUBCHEM_IUPAC_OPENEYE_NAME>
N-cyclohexyl-2-(3-fluoro-N-[2-(2-methylimidazol-1-yl)acetyl]anilino)-2-(o-tolyl)acetamide

> <PUBCHEM_IUPAC_CAS_NAME>
N-cyclohexyl-2-(3-fluoro-N-[2-(2-methyl-1-imidazolyl)-1-oxoethyl]anilino)-2-(2-methylphenyl)acetamide

> <PUBCHEM_IUPAC_NAME_MARKUP>
<I>N</I>-cyclohexyl-2-(3-fluoro-<I>N</I>-[2-(2-methylimidazol-1-yl)acetyl]anilino)-2-(2-methylphenyl)acetamide

> <PUBCHEM_IUPAC_NAME>
N-cyclohexyl-2-(3-fluoro-N-[2-(2-methylimidazol-1-yl)acetyl]anilino)-2-(2-methylphenyl)acetamide

> <PUBCHEM_IUPAC_SYSTEMATIC_NAME>
N-cyclohexyl-2-[(3-fluorophenyl)-[2-(2-methylimidazol-1-yl)ethanoyl]amino]-2-(2-methylphenyl)ethanamide

> <PUBCHEM_IUPAC_TRADITIONAL_NAME>
N-cyclohexyl-2-(3-fluoro-N-[2-(2-methylimidazol-1-yl)acetyl]anilino)-2-(o-tolyl)acetamide

> <PUBCHEM_IUPAC_INCHI>
InChI=1S/C27H31FN4O2/c1-19-9-6-7-14-24(19)26(27(34)30-22-11-4-3-5-12-22)32(23-13-8-10-21(28)17-23)25(33)18-31-16-15-29-20(31)2/h6-10,13-17,22,26H,3-5,11-12,18H2,1-2H3,(H,30,34)

> <PUBCHEM_IUPAC_INCHIKEY>
FNYGWXSATBUBER-UHFFFAOYSA-N

> <PUBCHEM_XLOGP3_AA>
4.9

> <PUBCHEM_EXACT_MASS>
462.243104

> <PUBCHEM_MOLECULAR_FORMULA>
C27H31FN4O2

> <PUBCHEM_MOLECULAR_WEIGHT>
462.6

> <PUBCHEM_OPENEYE_CAN_SMILES>
CC1=CC=CC=C1C(C(=O)NC2CCCCC2)N(C3=CC(=CC=C3)F)C(=O)CN4C=CN=C4C

> <PUBCHEM_OPENEYE_ISO_SMILES>
CC1=CC=CC=C1C(C(=O)NC2CCCCC2)N(C3=CC(=CC=C3)F)C(=O)CN4C=CN=C4C

> <PUBCHEM_CACTVS_TPSA>
67.2

> <PUBCHEM_MONOISOTOPIC_WEIGHT>
462.243104

> <PUBCHEM_TOTAL_CHARGE>
0

> <PUBCHEM_HEAVY_ATOM_COUNT>
34

> <PUBCHEM_ATOM_DEF_STEREO_COUNT>
0

> <PUBCHEM_ATOM_UDEF_STEREO_COUNT>
1

> <PUBCHEM_BOND_DEF_STEREO_COUNT>
0

> <PUBCHEM_BOND_UDEF_STEREO_COUNT>
0

> <PUBCHEM_ISOTOPIC_ATOM_COUNT>
0

> <PUBCHEM_COMPONENT_COUNT>
1

> <PUBCHEM_CACTVS_TAUTO_COUNT>
-1

> <PUBCHEM_COORDINATE_TYPE>
1
5
255

> <PUBCHEM_BONDANNOTATIONS>
14  15  3
16  17  8
16  20  8
17  22  8
18  25  8
18  26  8
20  24  8
22  27  8
24  27  8
25  28  8
26  29  8
28  32  8
29  32  8
31  33  8
6  30  8
6  31  8
7  30  8
7  33  8

$$$$
11626560
  -OEChem-02182015172D

 52 55  0     1  0  0  0  0  0999 V2000
    7.4888    3.5047    0.0000 Cl  0  0  0  0  0  0  0  0  0  0  0  0
    4.0246    3.5047    0.0000 Cl  0  0  0  0  0  0  0  0  0  0  0  0
    7.4888    5.5047    0.0000 F   0  0  0  0  0  0  0  0  0  0  0  0
    6.6227    2.0047    0.0000 O   0  0  0  0  0  0  0  0  0  0  0  0
    3.8080   -2.1977    0.0000 N   0  0  0  0  0  0  0  0  0  0  0  0
    2.5878   -4.9383    0.0000 N   0  0  0  0  0  0  0  0  0  0  0  0
    3.3080   -1.3317    0.0000 N   0  0  0  0  0  0  0  0  0  0  0  0
    7.4888   -0.4953    0.0000 N   0  0  0  0  0  0  0  0  0  0  0  0
    8.3548    1.0047    0.0000 N   0  0  0  0  0  0  0  0  0  0  0  0
    3.4013   -3.1112    0.0000 C   0  0  0  0  0  0  0  0  0  0  0  0
    3.9890   -3.9203    0.0000 C   0  0  0  0  0  0  0  0  0  0  0  0
    2.4067   -3.2158    0.0000 C   0  0  0  0  0  0  0  0  0  0  0  0
    3.5823   -4.8338    0.0000 C   0  0  0  0  0  0  0  0  0  0  0  0
    2.0000   -4.1293    0.0000 C   0  0  0  0  0  0  0  0  0  0  0  0
    4.7861   -1.9898    0.0000 C   0  0  0  0  0  0  0  0  0  0  0  0
    4.8907   -0.9953    0.0000 C   0  0  0  0  0  0  0  0  0  0  0  0
    3.9771   -0.5885    0.0000 C   0  0  0  0  0  0  0  0  0  0  0  0
    5.7567   -0.4953    0.0000 C   0  0  0  0  0  0  0  0  0  0  0  0
    5.7567    0.5047    0.0000 C   0  0  0  0  0  0  0  0  0  0  0  0
    6.6227   -0.9953    0.0000 C   0  0  0  0  0  0  0  0  0  0  0  0
    6.6227    1.0047    0.0000 C   0  0  0  0  0  0  0  0  0  0  0  0
    5.7567    2.5047    0.0000 C   0  0  1  0  0  0  0  0  0  0  0  0
    7.4888    0.5047    0.0000 C   0  0  0  0  0  0  0  0  0  0  0  0
    5.7567    3.5047    0.0000 C   0  0  0  0  0  0  0  0  0  0  0  0
    4.8907    2.0047    0.0000 C   0  0  0  0  0  0  0  0  0  0  0  0
    6.6227    4.0047    0.0000 C   0  0  0  0  0  0  0  0  0  0  0  0
    4.8907    4.0047    0.0000 C   0  0  0  0  0  0  0  0  0  0  0  0
    6.6227    5.0047    0.0000 C   0  0  0  0  0  0  0  0  0  0  0  0
    4.8907    5.0047    0.0000 C   0  0  0  0  0  0  0  0  0  0  0  0
    5.7567    5.5047    0.0000 C   0  0  0  0  0  0  0  0  0  0  0  0
    3.0368   -2.6096    0.0000 H   0  0  0  0  0  0  0  0  0  0  0  0
    4.5030   -4.2670    0.0000 H   0  0  0  0  0  0  0  0  0  0  0  0
    4.4197   -3.4743    0.0000 H   0  0  0  0  0  0  0  0  0  0  0  0
    2.4500   -2.5973    0.0000 H   0  0  0  0  0  0  0  0  0  0  0  0
    1.8052   -3.0658    0.0000 H   0  0  0  0  0  0  0  0  0  0  0  0
    3.5391   -5.4523    0.0000 H   0  0  0  0  0  0  0  0  0  0  0  0
    4.1839   -4.9838    0.0000 H   0  0  0  0  0  0  0  0  0  0  0  0
    1.4860   -3.7826    0.0000 H   0  0  0  0  0  0  0  0  0  0  0  0
    1.5693   -4.5753    0.0000 H   0  0  0  0  0  0  0  0  0  0  0  0
    2.3356   -5.5047    0.0000 H   0  0  0  0  0  0  0  0  0  0  0  0
    5.2469   -2.4046    0.0000 H   0  0  0  0  0  0  0  0  0  0  0  0
    3.8482    0.0179    0.0000 H   0  0  0  0  0  0  0  0  0  0  0  0
    5.2198    0.8147    0.0000 H   0  0  0  0  0  0  0  0  0  0  0  0
    6.6227   -1.6153    0.0000 H   0  0  0  0  0  0  0  0  0  0  0  0
    5.7567    1.8847    0.0000 H   0  0  0  0  0  0  0  0  0  0  0  0
    4.5807    2.5417    0.0000 H   0  0  0  0  0  0  0  0  0  0  0  0
    4.3537    1.6947    0.0000 H   0  0  0  0  0  0  0  0  0  0  0  0
    5.2007    1.4678    0.0000 H   0  0  0  0  0  0  0  0  0  0  0  0
    4.3537    5.3147    0.0000 H   0  0  0  0  0  0  0  0  0  0  0  0
    8.8917    0.6947    0.0000 H   0  0  0  0  0  0  0  0  0  0  0  0
    8.3548    1.6247    0.0000 H   0  0  0  0  0  0  0  0  0  0  0  0
    5.7567    6.1247    0.0000 H   0  0  0  0  0  0  0  0  0  0  0  0
  1 26  1  0  0  0  0
  2 27  1  0  0  0  0
  3 28  1  0  0  0  0
  4 21  1  0  0  0  0
 22  4  1  6  0  0  0
  5  7  1  0  0  0  0
  5 10  1  0  0  0  0
  5 15  1  0  0  0  0
  6 13  1  0  0  0  0
  6 14  1  0  0  0  0
  6 40  1  0  0  0  0
  7 17  2  0  0  0  0
  8 20  2  0  0  0  0
  8 23  1  0  0  0  0
  9 23  1  0  0  0  0
  9 50  1  0  0  0  0
  9 51  1  0  0  0  0
 10 11  1  0  0  0  0
 10 12  1  0  0  0  0
 10 31  1  0  0  0  0
 11 13  1  0  0  0  0
 11 32  1  0  0  0  0
 11 33  1  0  0  0  0
 12 14  1  0  0  0  0
 12 34  1  0  0  0  0
 12 35  1  0  0  0  0
 13 36  1  0  0  0  0
 13 37  1  0  0  0  0
 14 38  1  0  0  0  0
 14 39  1  0  0  0  0
 15 16  2  0  0  0  0
 15 41  1  0  0  0  0
 16 17  1  0  0  0  0
 16 18  1  0  0  0  0
 17 42  1  0  0  0  0
 18 19  2  0  0  0  0
 18 20  1  0  0  0  0
 19 21  1  0  0  0  0
 19 43  1  0  0  0  0
 20 44  1  0  0  0  0
 21 23  2  0  0  0  0
 22 24  1  0  0  0  0
 22 25  1  0  0  0  0
 22 45  1  0  0  0  0
 24 26  1  0  0  0  0
 24 27  2  0  0  0  0
 25 46  1  0  0  0  0
 25 47  1  0  0  0  0
 25 48  1  0  0  0  0
 26 28  2  0  0  0  0
 27 29  1  0  0  0  0
 28 30  1  0  0  0  0
 29 30  2  0  0  0  0
 29 49  1  0  0  0  0
 30 52  1  0  0  0  0
M  END
> <PUBCHEM_COMPOUND_CID>
11626560

> <PUBCHEM_COMPOUND_CANONICALIZED>
1

> <PUBCHEM_CACTVS_COMPLEXITY>
558

> <PUBCHEM_CACTVS_HBOND_ACCEPTOR>
6

> <PUBCHEM_CACTVS_HBOND_DONOR>
2

> <PUBCHEM_CACTVS_ROTATABLE_BOND>
5

> <PUBCHEM_CACTVS_SUBSKEYS>
AAADceB7oQAGAAAAAAAAAAAAAAAAAWAAAAA8WIAAAAAAAAAB8AAAHwIYAAAADD7hmi4/tpLIFACiAjJnZASSjCkx5SAY2KAvTpiOJuLF89uHvCjk2BPY6Cew0KIOgAAAAACBAAAAAAAAAQIAAAAAAAAAAA==

> <PUBCHEM_IUPAC_OPENEYE_NAME>
3-[(1R)-1-(2,6-dichloro-3-fluoro-phenyl)ethoxy]-5-[1-(4-piperidyl)pyrazol-4-yl]pyridin-2-amine

> <PUBCHEM_IUPAC_CAS_NAME>
3-[(1R)-1-(2,6-dichloro-3-fluorophenyl)ethoxy]-5-[1-(4-piperidinyl)-4-pyrazolyl]-2-pyridinamine

> <PUBCHEM_IUPAC_NAME_MARKUP>
3-[(1<I>R</I>)-1-(2,6-dichloro-3-fluorophenyl)ethoxy]-5-(1-piperidin-4-ylpyrazol-4-yl)pyridin-2-amine

> <PUBCHEM_IUPAC_NAME>
3-[(1R)-1-(2,6-dichloro-3-fluorophenyl)ethoxy]-5-(1-piperidin-4-ylpyrazol-4-yl)pyridin-2-amine

> <PUBCHEM_IUPAC_SYSTEMATIC_NAME>
3-[(1R)-1-[2,6-bis(chloranyl)-3-fluoranyl-phenyl]ethoxy]-5-(1-piperidin-4-ylpyrazol-4-yl)pyridin-2-amine

> <PUBCHEM_IUPAC_TRADITIONAL_NAME>
[3-[(1R)-1-(2,6-dichloro-3-fluoro-phenyl)ethoxy]-5-[1-(4-piperidyl)pyrazol-4-yl]-2-pyridyl]amine

> <PUBCHEM_IUPAC_INCHI>
InChI=1S/C21H22Cl2FN5O/c1-12(19-16(22)2-3-17(24)20(19)23)30-18-8-13(9-27-21(18)25)14-10-28-29(11-14)15-4-6-26-7-5-15/h2-3,8-12,15,26H,4-7H2,1H3,(H2,25,27)/t12-/m1/s1

> <PUBCHEM_IUPAC_INCHIKEY>
KTEIFNKAUNYNJU-GFCCVEGCSA-N

> <PUBCHEM_XLOGP3_AA>
3.7

> <PUBCHEM_EXACT_MASS>
449.118544

> <PUBCHEM_MOLECULAR_FORMULA>
C21H22Cl2FN5O

> <PUBCHEM_MOLECULAR_WEIGHT>
450.3

> <PUBCHEM_OPENEYE_CAN_SMILES>
CC(C1=C(C=CC(=C1Cl)F)Cl)OC2=C(N=CC(=C2)C3=CN(N=C3)C4CCNCC4)N

> <PUBCHEM_OPENEYE_ISO_SMILES>
C[C@H](C1=C(C=CC(=C1Cl)F)Cl)OC2=C(N=CC(=C2)C3=CN(N=C3)C4CCNCC4)N

> <PUBCHEM_CACTVS_TPSA>
78

> <PUBCHEM_MONOISOTOPIC_WEIGHT>
449.118544

> <PUBCHEM_TOTAL_CHARGE>
0

> <PUBCHEM_HEAVY_ATOM_COUNT>
30

> <PUBCHEM_ATOM_DEF_STEREO_COUNT>
1

> <PUBCHEM_ATOM_UDEF_STEREO_COUNT>
0

> <PUBCHEM_BOND_DEF_STEREO_COUNT>
0

> <PUBCHEM_BOND_UDEF_STEREO_COUNT>
0

> <PUBCHEM_ISOTOPIC_ATOM_COUNT>
0

> <PUBCHEM_COMPONENT_COUNT>
1

> <PUBCHEM_CACTVS_TAUTO_COUNT>
-1

> <PUBCHEM_COORDINATE_TYPE>
1
5
255

> <PUBCHEM_BONDANNOTATIONS>
15  16  8
16  17  8
18  19  8
18  20  8
19  21  8
21  23  8
24  26  8
24  27  8
26  28  8
27  29  8
28  30  8
29  30  8
22  4  6
5  15  8
5  7  8
7  17  8
8  20  8
8  23  8

$$$$
11640390
  -OEChem-02182015172D

 55 60  0     0  0  0  0  0  0999 V2000
    3.2939   -3.2726    0.0000 O   0  0  0  0  0  0  0  0  0  0  0  0
    3.4059    0.7273    0.0000 N   0  0  0  0  0  0  0  0  0  0  0  0
    4.8785    0.0778    0.0000 N   0  0  0  0  0  0  0  0  0  0  0  0
    2.7846    2.6284    0.0000 N   0  0  0  0  0  0  0  0  0  0  0  0
    4.4309    3.1665    0.0000 N   0  0  0  0  0  0  0  0  0  0  0  0
    8.4735    1.0319    0.0000 N   0  0  0  0  0  0  0  0  0  0  0  0
    2.9323   -2.3403    0.0000 C   0  0  0  0  0  0  0  0  0  0  0  0
    3.5031   -1.0463    0.0000 C   0  0  0  0  0  0  0  0  0  0  0  0
    3.8647   -1.9787    0.0000 C   0  0  0  0  0  0  0  0  0  0  0  0
    2.5707   -1.4079    0.0000 C   0  0  0  0  0  0  0  0  0  0  0  0
    3.9066   -0.1314    0.0000 C   0  0  0  0  0  0  0  0  0  0  0  0
    2.0000   -2.7019    0.0000 C   0  0  0  0  0  0  0  0  0  0  0  0
    4.0737    1.4716    0.0000 C   0  0  0  0  0  0  0  0  0  0  0  0
    4.9815    1.0665    0.0000 C   0  0  0  0  0  0  0  0  0  0  0  0
    2.4274    0.9336    0.0000 C   0  0  0  0  0  0  0  0  0  0  0  0
    3.7631    2.4222    0.0000 C   0  0  0  0  0  0  0  0  0  0  0  0
    5.8475    1.5665    0.0000 C   0  0  0  0  0  0  0  0  0  0  0  0
    2.1167    1.8841    0.0000 C   0  0  0  0  0  0  0  0  0  0  0  0
    6.7136    1.0665    0.0000 C   0  0  0  0  0  0  0  0  0  0  0  0
    5.8475    2.5665    0.0000 C   0  0  0  0  0  0  0  0  0  0  0  0
    7.5796    1.5665    0.0000 C   0  0  0  0  0  0  0  0  0  0  0  0
    6.7136    3.0665    0.0000 C   0  0  0  0  0  0  0  0  0  0  0  0
    7.5796    2.5665    0.0000 C   0  0  0  0  0  0  0  0  0  0  0  0
    8.4735    3.1012    0.0000 C   0  0  0  0  0  0  0  0  0  0  0  0
    9.3796    1.5457    0.0000 C   0  0  0  0  0  0  0  0  0  0  0  0
    9.3796    2.5873    0.0000 C   0  0  0  0  0  0  0  0  0  0  0  0
   10.2437    1.0424    0.0000 C   0  0  0  0  0  0  0  0  0  0  0  0
   10.2398    0.0424    0.0000 C   0  0  0  0  0  0  0  0  0  0  0  0
   11.1116    1.5390    0.0000 C   0  0  0  0  0  0  0  0  0  0  0  0
   11.1039   -0.4609    0.0000 C   0  0  0  0  0  0  0  0  0  0  0  0
   11.9757    1.0357    0.0000 C   0  0  0  0  0  0  0  0  0  0  0  0
   11.9719    0.0357    0.0000 C   0  0  0  0  0  0  0  0  0  0  0  0
    4.1229   -1.0604    0.0000 H   0  0  0  0  0  0  0  0  0  0  0  0
    4.0889   -2.5567    0.0000 H   0  0  0  0  0  0  0  0  0  0  0  0
    4.4427   -1.7545    0.0000 H   0  0  0  0  0  0  0  0  0  0  0  0
    2.3466   -0.8299    0.0000 H   0  0  0  0  0  0  0  0  0  0  0  0
    1.9927   -1.6321    0.0000 H   0  0  0  0  0  0  0  0  0  0  0  0
    1.7758   -2.1238    0.0000 H   0  0  0  0  0  0  0  0  0  0  0  0
    1.4220   -2.9261    0.0000 H   0  0  0  0  0  0  0  0  0  0  0  0
    2.2242   -3.2799    0.0000 H   0  0  0  0  0  0  0  0  0  0  0  0
    2.9054   -3.7558    0.0000 H   0  0  0  0  0  0  0  0  0  0  0  0
    2.0133    0.4721    0.0000 H   0  0  0  0  0  0  0  0  0  0  0  0
    1.5100    2.0119    0.0000 H   0  0  0  0  0  0  0  0  0  0  0  0
    6.7136    0.4465    0.0000 H   0  0  0  0  0  0  0  0  0  0  0  0
    5.3106    2.8765    0.0000 H   0  0  0  0  0  0  0  0  0  0  0  0
    4.2383    3.7558    0.0000 H   0  0  0  0  0  0  0  0  0  0  0  0
    5.0376    3.0386    0.0000 H   0  0  0  0  0  0  0  0  0  0  0  0
    6.7136    3.6865    0.0000 H   0  0  0  0  0  0  0  0  0  0  0  0
    8.4664    3.7212    0.0000 H   0  0  0  0  0  0  0  0  0  0  0  0
    9.9153    2.8994    0.0000 H   0  0  0  0  0  0  0  0  0  0  0  0
    9.7017   -0.2655    0.0000 H   0  0  0  0  0  0  0  0  0  0  0  0
   11.1140    2.1590    0.0000 H   0  0  0  0  0  0  0  0  0  0  0  0
   11.1015   -1.0809    0.0000 H   0  0  0  0  0  0  0  0  0  0  0  0
   12.5139    1.3436    0.0000 H   0  0  0  0  0  0  0  0  0  0  0  0
   12.5076   -0.2764    0.0000 H   0  0  0  0  0  0  0  0  0  0  0  0
  1  7  1  0  0  0  0
  1 41  1  0  0  0  0
  2 11  1  0  0  0  0
  2 13  1  0  0  0  0
  2 15  1  0  0  0  0
  3 11  2  0  0  0  0
  3 14  1  0  0  0  0
  4 16  2  0  0  0  0
  4 18  1  0  0  0  0
  5 16  1  0  0  0  0
  5 46  1  0  0  0  0
  5 47  1  0  0  0  0
  6 21  1  0  0  0  0
  6 25  2  0  0  0  0
  7  9  1  0  0  0  0
  7 10  1  0  0  0  0
  7 12  1  0  0  0  0
  8  9  1  0  0  0  0
  8 10  1  0  0  0  0
  8 11  1  0  0  0  0
  8 33  1  0  0  0  0
  9 34  1  0  0  0  0
  9 35  1  0  0  0  0
 10 36  1  0  0  0  0
 10 37  1  0  0  0  0
 12 38  1  0  0  0  0
 12 39  1  0  0  0  0
 12 40  1  0  0  0  0
 13 14  2  0  0  0  0
 13 16  1  0  0  0  0
 14 17  1  0  0  0  0
 15 18  2  0  0  0  0
 15 42  1  0  0  0  0
 17 19  2  0  0  0  0
 17 20  1  0  0  0  0
 18 43  1  0  0  0  0
 19 21  1  0  0  0  0
 19 44  1  0  0  0  0
 20 22  2  0  0  0  0
 20 45  1  0  0  0  0
 21 23  2  0  0  0  0
 22 23  1  0  0  0  0
 22 48  1  0  0  0  0
 23 24  1  0  0  0  0
 24 26  2  0  0  0  0
 24 49  1  0  0  0  0
 25 26  1  0  0  0  0
 25 27  1  0  0  0  0
 26 50  1  0  0  0  0
 27 28  2  0  0  0  0
 27 29  1  0  0  0  0
 28 30  1  0  0  0  0
 28 51  1  0  0  0  0
 29 31  2  0  0  0  0
 29 52  1  0  0  0  0
 30 32  2  0  0  0  0
 30 53  1  0  0  0  0
 31 32  1  0  0  0  0
 31 54  1  0  0  0  0
 32 55  1  0  0  0  0
M  END
> <PUBCHEM_COMPOUND_CID>
11640390

> <PUBCHEM_COMPOUND_CANONICALIZED>
1

> <PUBCHEM_CACTVS_COMPLEXITY>
663

> <PUBCHEM_CACTVS_HBOND_ACCEPTOR>
5

> <PUBCHEM_CACTVS_HBOND_DONOR>
2

> <PUBCHEM_CACTVS_ROTATABLE_BOND>
3

> <PUBCHEM_CACTVS_SUBSKEYS>
AAADceB7oAAAAAAAAAAAAAAAAABgAWAAAAA8eIEAAAAAAFix/gAAHgAQCAAADUzBnwQ/8PdMGgCgAzZnZACCgC0xEqAJ2CA4dJiIaOLA2dGUZAhsgALIyCcwgMAOQAAAQAACAACAAACAAAQAAAAAAAAAAA==

> <PUBCHEM_IUPAC_OPENEYE_NAME>
3-[8-amino-1-(2-phenyl-7-quinolyl)imidazo[1,5-a]pyrazin-3-yl]-1-methyl-cyclobutanol

> <PUBCHEM_IUPAC_CAS_NAME>
3-[8-amino-1-(2-phenyl-7-quinolinyl)-3-imidazo[1,5-a]pyrazinyl]-1-methyl-1-cyclobutanol

> <PUBCHEM_IUPAC_NAME_MARKUP>
3-[8-amino-1-(2-phenylquinolin-7-yl)imidazo[1,5-a]pyrazin-3-yl]-1-methylcyclobutan-1-ol

> <PUBCHEM_IUPAC_NAME>
3-[8-amino-1-(2-phenylquinolin-7-yl)imidazo[1,5-a]pyrazin-3-yl]-1-methylcyclobutan-1-ol

> <PUBCHEM_IUPAC_SYSTEMATIC_NAME>
3-[8-azanyl-1-(2-phenylquinolin-7-yl)imidazo[1,5-a]pyrazin-3-yl]-1-methyl-cyclobutan-1-ol

> <PUBCHEM_IUPAC_TRADITIONAL_NAME>
3-[8-amino-1-(2-phenyl-7-quinolyl)imidazo[1,5-a]pyrazin-3-yl]-1-methyl-cyclobutanol

> <PUBCHEM_IUPAC_INCHI>
InChI=1S/C26H23N5O/c1-26(32)14-19(15-26)25-30-22(23-24(27)28-11-12-31(23)25)18-8-7-17-9-10-20(29-21(17)13-18)16-5-3-2-4-6-16/h2-13,19,32H,14-15H2,1H3,(H2,27,28)

> <PUBCHEM_IUPAC_INCHIKEY>
PKCDDUHJAFVJJB-UHFFFAOYSA-N

> <PUBCHEM_XLOGP3_AA>
4.2

> <PUBCHEM_EXACT_MASS>
421.19026

> <PUBCHEM_MOLECULAR_FORMULA>
C26H23N5O

> <PUBCHEM_MOLECULAR_WEIGHT>
421.5

> <PUBCHEM_OPENEYE_CAN_SMILES>
CC1(CC(C1)C2=NC(=C3N2C=CN=C3N)C4=CC5=C(C=C4)C=CC(=N5)C6=CC=CC=C6)O

> <PUBCHEM_OPENEYE_ISO_SMILES>
CC1(CC(C1)C2=NC(=C3N2C=CN=C3N)C4=CC5=C(C=C4)C=CC(=N5)C6=CC=CC=C6)O

> <PUBCHEM_CACTVS_TPSA>
89.3

> <PUBCHEM_MONOISOTOPIC_WEIGHT>
421.19026

> <PUBCHEM_TOTAL_CHARGE>
0

> <PUBCHEM_HEAVY_ATOM_COUNT>
32

> <PUBCHEM_ATOM_DEF_STEREO_COUNT>
0

> <PUBCHEM_ATOM_UDEF_STEREO_COUNT>
0

> <PUBCHEM_BOND_DEF_STEREO_COUNT>
0

> <PUBCHEM_BOND_UDEF_STEREO_COUNT>
0

> <PUBCHEM_ISOTOPIC_ATOM_COUNT>
0

> <PUBCHEM_COMPONENT_COUNT>
1

> <PUBCHEM_CACTVS_TAUTO_COUNT>
-1

> <PUBCHEM_COORDINATE_TYPE>
1
5
255

> <PUBCHEM_BONDANNOTATIONS>
13  14  8
13  16  8
15  18  8
17  19  8
17  20  8
19  21  8
2  11  8
2  13  8
2  15  8
20  22  8
21  23  8
22  23  8
23  24  8
24  26  8
25  26  8
27  28  8
27  29  8
28  30  8
29  31  8
3  11  8
3  14  8
30  32  8
31  32  8
4  16  8
4  18  8
6  21  8
6  25  8

$$$$
6450551
  -OEChem-02182015172D

 46 49  0     0  0  0  0  0  0999 V2000
    5.1350   -1.6565    0.0000 S   0  0  0  0  0  0  0  0  0  0  0  0
    4.2690   -3.1565    0.0000 O   0  0  0  0  0  0  0  0  0  0  0  0
    8.6793   -1.4612    0.0000 N   0  0  0  0  0  0  0  0  0  0  0  0
    9.2629   -0.6565    0.0000 N   0  0  0  0  0  0  0  0  0  0  0  0
    2.5369   -3.1565    0.0000 N   0  0  0  0  0  0  0  0  0  0  0  0
    9.6113    2.9998    0.0000 N   0  0  0  0  0  0  0  0  0  0  0  0
    7.7331   -0.1565    0.0000 C   0  0  0  0  0  0  0  0  0  0  0  0
    7.7331   -1.1565    0.0000 C   0  0  0  0  0  0  0  0  0  0  0  0
    8.6793    0.1482    0.0000 C   0  0  0  0  0  0  0  0  0  0  0  0
    6.8671   -1.6565    0.0000 C   0  0  0  0  0  0  0  0  0  0  0  0
    6.0010   -1.1565    0.0000 C   0  0  0  0  0  0  0  0  0  0  0  0
    6.8671    0.3435    0.0000 C   0  0  0  0  0  0  0  0  0  0  0  0
    6.0010   -0.1565    0.0000 C   0  0  0  0  0  0  0  0  0  0  0  0
    4.2690   -1.1565    0.0000 C   0  0  0  0  0  0  0  0  0  0  0  0
    8.9900    1.0987    0.0000 C   0  0  0  0  0  0  0  0  0  0  0  0
    3.4030   -1.6565    0.0000 C   0  0  0  0  0  0  0  0  0  0  0  0
    4.2690   -0.1565    0.0000 C   0  0  0  0  0  0  0  0  0  0  0  0
    9.9685    1.3050    0.0000 C   0  0  0  0  0  0  0  0  0  0  0  0
    2.5369   -1.1565    0.0000 C   0  0  0  0  0  0  0  0  0  0  0  0
    3.4030    0.3435    0.0000 C   0  0  0  0  0  0  0  0  0  0  0  0
    3.4030   -2.6565    0.0000 C   0  0  0  0  0  0  0  0  0  0  0  0
    2.5369   -0.1565    0.0000 C   0  0  0  0  0  0  0  0  0  0  0  0
   10.2791    2.2555    0.0000 C   0  0  0  0  0  0  0  0  0  0  0  0
   11.2576    2.4617    0.0000 C   0  0  0  0  0  0  0  0  0  0  0  0
   11.5683    3.4122    0.0000 C   0  0  0  0  0  0  0  0  0  0  0  0
    2.5369   -4.1565    0.0000 C   0  0  0  0  0  0  0  0  0  0  0  0
    9.9220    3.9503    0.0000 C   0  0  0  0  0  0  0  0  0  0  0  0
   10.9005    4.1565    0.0000 C   0  0  0  0  0  0  0  0  0  0  0  0
    6.8671   -2.2765    0.0000 H   0  0  0  0  0  0  0  0  0  0  0  0
    6.8671    0.9635    0.0000 H   0  0  0  0  0  0  0  0  0  0  0  0
    5.4641    0.1535    0.0000 H   0  0  0  0  0  0  0  0  0  0  0  0
    8.8719   -2.0506    0.0000 H   0  0  0  0  0  0  0  0  0  0  0  0
    8.5759    1.5602    0.0000 H   0  0  0  0  0  0  0  0  0  0  0  0
    4.8059    0.1535    0.0000 H   0  0  0  0  0  0  0  0  0  0  0  0
   10.3825    0.8435    0.0000 H   0  0  0  0  0  0  0  0  0  0  0  0
    2.0000   -1.4665    0.0000 H   0  0  0  0  0  0  0  0  0  0  0  0
    3.4030    0.9635    0.0000 H   0  0  0  0  0  0  0  0  0  0  0  0
    2.0000    0.1535    0.0000 H   0  0  0  0  0  0  0  0  0  0  0  0
    2.0000   -2.8465    0.0000 H   0  0  0  0  0  0  0  0  0  0  0  0
   11.6717    2.0002    0.0000 H   0  0  0  0  0  0  0  0  0  0  0  0
   12.1750    3.5401    0.0000 H   0  0  0  0  0  0  0  0  0  0  0  0
    1.9169   -4.1565    0.0000 H   0  0  0  0  0  0  0  0  0  0  0  0
    2.5369   -4.7765    0.0000 H   0  0  0  0  0  0  0  0  0  0  0  0
    3.1569   -4.1565    0.0000 H   0  0  0  0  0  0  0  0  0  0  0  0
    9.5079    4.4118    0.0000 H   0  0  0  0  0  0  0  0  0  0  0  0
   11.0931    4.7458    0.0000 H   0  0  0  0  0  0  0  0  0  0  0  0
  1 11  1  0  0  0  0
  1 14  1  0  0  0  0
  2 21  2  0  0  0  0
  3  4  1  0  0  0  0
  3  8  1  0  0  0  0
  3 32  1  0  0  0  0
  4  9  2  0  0  0  0
  5 21  1  0  0  0  0
  5 26  1  0  0  0  0
  5 39  1  0  0  0  0
  6 23  1  0  0  0  0
  6 27  2  0  0  0  0
  7  8  2  0  0  0  0
  7  9  1  0  0  0  0
  7 12  1  0  0  0  0
  8 10  1  0  0  0  0
  9 15  1  0  0  0  0
 10 11  2  0  0  0  0
 10 29  1  0  0  0  0
 11 13  1  0  0  0  0
 12 13  2  0  0  0  0
 12 30  1  0  0  0  0
 13 31  1  0  0  0  0
 14 16  1  0  0  0  0
 14 17  2  0  0  0  0
 15 18  2  0  0  0  0
 15 33  1  0  0  0  0
 16 19  2  0  0  0  0
 16 21  1  0  0  0  0
 17 20  1  0  0  0  0
 17 34  1  0  0  0  0
 18 23  1  0  0  0  0
 18 35  1  0  0  0  0
 19 22  1  0  0  0  0
 19 36  1  0  0  0  0
 20 22  2  0  0  0  0
 20 37  1  0  0  0  0
 22 38  1  0  0  0  0
 23 24  2  0  0  0  0
 24 25  1  0  0  0  0
 24 40  1  0  0  0  0
 25 28  2  0  0  0  0
 25 41  1  0  0  0  0
 26 42  1  0  0  0  0
 26 43  1  0  0  0  0
 26 44  1  0  0  0  0
 27 28  1  0  0  0  0
 27 45  1  0  0  0  0
 28 46  1  0  0  0  0
M  END
> <PUBCHEM_COMPOUND_CID>
6450551

> <PUBCHEM_COMPOUND_CANONICALIZED>
1

> <PUBCHEM_CACTVS_COMPLEXITY>
557

> <PUBCHEM_CACTVS_HBOND_ACCEPTOR>
4

> <PUBCHEM_CACTVS_HBOND_DONOR>
2

> <PUBCHEM_CACTVS_ROTATABLE_BOND>
5

> <PUBCHEM_CACTVS_SUBSKEYS>
AAADceB7oABAAAAAAAAAAAAAAAAAAWAAAAA8YIAAAAAAAFgB/AAAHgQYAAAADAjB3gQ+wfLrEAiqAzV3VACShCA1CjAY+bk4ZNgIIPLg1dGEpQxgmgDoyYcYiICOEAAAACAGAAAgAAAAQAwAAAAAAAAAAA==

> <PUBCHEM_IUPAC_OPENEYE_NAME>
N-methyl-2-[[3-[(E)-2-(2-pyridyl)vinyl]-1H-indazol-6-yl]sulfanyl]benzamide

> <PUBCHEM_IUPAC_CAS_NAME>
N-methyl-2-[[3-[(E)-2-(2-pyridinyl)ethenyl]-1H-indazol-6-yl]thio]benzamide

> <PUBCHEM_IUPAC_NAME_MARKUP>
<I>N</I>-methyl-2-[[3-[(<I>E</I>)-2-pyridin-2-ylethenyl]-1<I>H</I>-indazol-6-yl]sulfanyl]benzamide

> <PUBCHEM_IUPAC_NAME>
N-methyl-2-[[3-[(E)-2-pyridin-2-ylethenyl]-1H-indazol-6-yl]sulfanyl]benzamide

> <PUBCHEM_IUPAC_SYSTEMATIC_NAME>
N-methyl-2-[[3-[(E)-2-pyridin-2-ylethenyl]-1H-indazol-6-yl]sulfanyl]benzamide

> <PUBCHEM_IUPAC_TRADITIONAL_NAME>
N-methyl-2-[[3-[(E)-2-(2-pyridyl)vinyl]-1H-indazol-6-yl]thio]benzamide

> <PUBCHEM_IUPAC_INCHI>
InChI=1S/C22H18N4OS/c1-23-22(27)18-7-2-3-8-21(18)28-16-10-11-17-19(25-26-20(17)14-16)12-9-15-6-4-5-13-24-15/h2-14H,1H3,(H,23,27)(H,25,26)/b12-9+

> <PUBCHEM_IUPAC_INCHIKEY>
RITAVMQDGBJQJZ-FMIVXFBMSA-N

> <PUBCHEM_XLOGP3_AA>
4.2

> <PUBCHEM_EXACT_MASS>
386.120132

> <PUBCHEM_MOLECULAR_FORMULA>
C22H18N4OS

> <PUBCHEM_MOLECULAR_WEIGHT>
386.5

> <PUBCHEM_OPENEYE_CAN_SMILES>
CNC(=O)C1=CC=CC=C1SC2=CC3=C(C=C2)C(=NN3)C=CC4=CC=CC=N4

> <PUBCHEM_OPENEYE_ISO_SMILES>
CNC(=O)C1=CC=CC=C1SC2=CC3=C(C=C2)C(=NN3)/C=C/C4=CC=CC=N4

> <PUBCHEM_CACTVS_TPSA>
96

> <PUBCHEM_MONOISOTOPIC_WEIGHT>
386.120132

> <PUBCHEM_TOTAL_CHARGE>
0

> <PUBCHEM_HEAVY_ATOM_COUNT>
28

> <PUBCHEM_ATOM_DEF_STEREO_COUNT>
0

> <PUBCHEM_ATOM_UDEF_STEREO_COUNT>
0

> <PUBCHEM_BOND_DEF_STEREO_COUNT>
1

> <PUBCHEM_BOND_UDEF_STEREO_COUNT>
0

> <PUBCHEM_ISOTOPIC_ATOM_COUNT>
0

> <PUBCHEM_COMPONENT_COUNT>
1

> <PUBCHEM_CACTVS_TAUTO_COUNT>
-1

> <PUBCHEM_COORDINATE_TYPE>
1
5
255

> <PUBCHEM_BONDANNOTATIONS>
10  11  8
11  13  8
12  13  8
14  16  8
14  17  8
16  19  8
17  20  8
19  22  8
20  22  8
23  24  8
24  25  8
25  28  8
27  28  8
3  4  8
3  8  8
4  9  8
6  23  8
6  27  8
7  12  8
7  8  8
7  9  8
8  10  8

$$$$
387447
  -OEChem-02182015172D

 53 54  0     1  0  0  0  0  0999 V2000
    4.5981   -0.5600    0.0000 O   0  0  0  0  0  0  0  0  0  0  0  0
    3.7320    2.9400    0.0000 O   0  0  0  0  0  0  0  0  0  0  0  0
    5.4641    2.9400    0.0000 O   0  0  0  0  0  0  0  0  0  0  0  0
    8.0622   -1.5600    0.0000 O   0  0  0  0  0  0  0  0  0  0  0  0
    5.4641    0.9400    0.0000 N   0  0  0  0  0  0  0  0  0  0  0  0
    7.1962   -0.0600    0.0000 N   0  0  0  0  0  0  0  0  0  0  0  0
    9.7942   -0.5600    0.0000 N   0  0  0  0  0  0  0  0  0  0  0  0
    9.7942    1.4400    0.0000 N   0  0  0  0  0  0  0  0  0  0  0  0
    3.7320    0.9400    0.0000 C   0  0  0  0  0  0  0  0  0  0  0  0
    2.8660    1.4400    0.0000 C   0  0  0  0  0  0  0  0  0  0  0  0
    4.5981    1.4400    0.0000 C   0  0  1  0  0  0  0  0  0  0  0  0
    6.3301   -0.5600    0.0000 C   0  0  2  0  0  0  0  0  0  0  0  0
    5.4641   -0.0600    0.0000 C   0  0  0  0  0  0  0  0  0  0  0  0
    6.3301   -1.5600    0.0000 C   0  0  0  0  0  0  0  0  0  0  0  0
    2.0000    0.9400    0.0000 C   0  0  0  0  0  0  0  0  0  0  0  0
    2.8660    2.4400    0.0000 C   0  0  0  0  0  0  0  0  0  0  0  0
    5.4641   -2.0600    0.0000 C   0  0  0  0  0  0  0  0  0  0  0  0
    4.5981   -1.5600    0.0000 C   0  0  0  0  0  0  0  0  0  0  0  0
    5.4641   -3.0600    0.0000 C   0  0  0  0  0  0  0  0  0  0  0  0
    8.0622   -0.5600    0.0000 C   0  0  0  0  0  0  0  0  0  0  0  0
    3.7320   -2.0600    0.0000 C   0  0  0  0  0  0  0  0  0  0  0  0
    4.5981   -3.5600    0.0000 C   0  0  0  0  0  0  0  0  0  0  0  0
    3.7320   -3.0600    0.0000 C   0  0  0  0  0  0  0  0  0  0  0  0
    8.9282   -0.0600    0.0000 C   0  0  0  0  0  0  0  0  0  0  0  0
    8.9282    0.9400    0.0000 C   0  0  0  0  0  0  0  0  0  0  0  0
   10.6603   -0.0600    0.0000 C   0  0  0  0  0  0  0  0  0  0  0  0
   10.6603    0.9400    0.0000 C   0  0  0  0  0  0  0  0  0  0  0  0
    4.5981    2.4400    0.0000 B   0  0  0  0  0  0  0  0  0  0  0  0
    3.3335    0.4651    0.0000 H   0  0  0  0  0  0  0  0  0  0  0  0
    4.1306    0.4651    0.0000 H   0  0  0  0  0  0  0  0  0  0  0  0
    3.4030    1.7500    0.0000 H   0  0  0  0  0  0  0  0  0  0  0  0
    4.5981    0.8200    0.0000 H   0  0  0  0  0  0  0  0  0  0  0  0
    6.8671   -0.8700    0.0000 H   0  0  0  0  0  0  0  0  0  0  0  0
    6.0010    1.2500    0.0000 H   0  0  0  0  0  0  0  0  0  0  0  0
    6.5422   -2.1426    0.0000 H   0  0  0  0  0  0  0  0  0  0  0  0
    6.9407   -1.4523    0.0000 H   0  0  0  0  0  0  0  0  0  0  0  0
    1.6900    1.4769    0.0000 H   0  0  0  0  0  0  0  0  0  0  0  0
    1.4631    0.6300    0.0000 H   0  0  0  0  0  0  0  0  0  0  0  0
    2.3100    0.4031    0.0000 H   0  0  0  0  0  0  0  0  0  0  0  0
    3.4860    2.4400    0.0000 H   0  0  0  0  0  0  0  0  0  0  0  0
    2.8660    3.0600    0.0000 H   0  0  0  0  0  0  0  0  0  0  0  0
    2.2460    2.4400    0.0000 H   0  0  0  0  0  0  0  0  0  0  0  0
    7.1962    0.5600    0.0000 H   0  0  0  0  0  0  0  0  0  0  0  0
    4.5981   -0.9400    0.0000 H   0  0  0  0  0  0  0  0  0  0  0  0
    6.0010   -3.3700    0.0000 H   0  0  0  0  0  0  0  0  0  0  0  0
    3.7320    3.5600    0.0000 H   0  0  0  0  0  0  0  0  0  0  0  0
    5.4641    3.5600    0.0000 H   0  0  0  0  0  0  0  0  0  0  0  0
    3.1951   -1.7500    0.0000 H   0  0  0  0  0  0  0  0  0  0  0  0
    4.5981   -4.1800    0.0000 H   0  0  0  0  0  0  0  0  0  0  0  0
    3.1951   -3.3700    0.0000 H   0  0  0  0  0  0  0  0  0  0  0  0
    8.3913    1.2500    0.0000 H   0  0  0  0  0  0  0  0  0  0  0  0
   11.1972   -0.3700    0.0000 H   0  0  0  0  0  0  0  0  0  0  0  0
   11.1972    1.2500    0.0000 H   0  0  0  0  0  0  0  0  0  0  0  0
  1 13  2  0  0  0  0
  2 28  1  0  0  0  0
  2 46  1  0  0  0  0
  3 28  1  0  0  0  0
  3 47  1  0  0  0  0
  4 20  2  0  0  0  0
 11  5  1  1  0  0  0
  5 13  1  0  0  0  0
  5 34  1  0  0  0  0
 12  6  1  1  0  0  0
  6 20  1  0  0  0  0
  6 43  1  0  0  0  0
  7 24  2  0  0  0  0
  7 26  1  0  0  0  0
  8 25  2  0  0  0  0
  8 27  1  0  0  0  0
  9 10  1  0  0  0  0
  9 11  1  0  0  0  0
  9 29  1  0  0  0  0
  9 30  1  0  0  0  0
 10 15  1  0  0  0  0
 10 16  1  0  0  0  0
 10 31  1  0  0  0  0
 11 28  1  0  0  0  0
 11 32  1  0  0  0  0
 12 13  1  0  0  0  0
 12 14  1  0  0  0  0
 12 33  1  0  0  0  0
 14 17  1  0  0  0  0
 14 35  1  0  0  0  0
 14 36  1  0  0  0  0
 15 37  1  0  0  0  0
 15 38  1  0  0  0  0
 15 39  1  0  0  0  0
 16 40  1  0  0  0  0
 16 41  1  0  0  0  0
 16 42  1  0  0  0  0
 17 18  2  0  0  0  0
 17 19  1  0  0  0  0
 18 21  1  0  0  0  0
 18 44  1  0  0  0  0
 19 22  2  0  0  0  0
 19 45  1  0  0  0  0
 20 24  1  0  0  0  0
 21 23  2  0  0  0  0
 21 48  1  0  0  0  0
 22 23  1  0  0  0  0
 22 49  1  0  0  0  0
 23 50  1  0  0  0  0
 24 25  1  0  0  0  0
 25 51  1  0  0  0  0
 26 27  2  0  0  0  0
 26 52  1  0  0  0  0
 27 53  1  0  0  0  0
M  END
> <PUBCHEM_COMPOUND_CID>
387447

> <PUBCHEM_COMPOUND_CANONICALIZED>
1

> <PUBCHEM_CACTVS_COMPLEXITY>
500

> <PUBCHEM_CACTVS_HBOND_ACCEPTOR>
6

> <PUBCHEM_CACTVS_HBOND_DONOR>
4

> <PUBCHEM_CACTVS_ROTATABLE_BOND>
9

> <PUBCHEM_CACTVS_SUBSKEYS>
AAADceJ7uAAAAAAAAAAAAAAAAAAAAAAAAAA8QAAAAAAAAAABwAAoHgAQCAAADSjBngQ+gJLIEACoAzV3VACCgCQ3EiAI2IG4dMgIYHrA0TGUIIgglgDIiMcYiICOAAAAAAAAAAAAAAAAAAAAAAAAAAAAAA==

> <PUBCHEM_IUPAC_OPENEYE_NAME>
[(1R)-3-methyl-1-[[(2S)-3-phenyl-2-(pyrazine-2-carbonylamino)propanoyl]amino]butyl]boronic acid

> <PUBCHEM_IUPAC_CAS_NAME>
[(1R)-3-methyl-1-[[(2S)-1-oxo-2-[[oxo(2-pyrazinyl)methyl]amino]-3-phenylpropyl]amino]butyl]boronic acid

> <PUBCHEM_IUPAC_NAME_MARKUP>
[(1<I>R</I>)-3-methyl-1-[[(2<I>S</I>)-3-phenyl-2-(pyrazine-2-carbonylamino)propanoyl]amino]butyl]boronic acid

> <PUBCHEM_IUPAC_NAME>
[(1R)-3-methyl-1-[[(2S)-3-phenyl-2-(pyrazine-2-carbonylamino)propanoyl]amino]butyl]boronic acid

> <PUBCHEM_IUPAC_SYSTEMATIC_NAME>
[(1R)-3-methyl-1-[[(2S)-3-phenyl-2-(pyrazin-2-ylcarbonylamino)propanoyl]amino]butyl]boronic acid

> <PUBCHEM_IUPAC_TRADITIONAL_NAME>
[(1R)-3-methyl-1-[[(2S)-3-phenyl-2-(pyrazinoylamino)propanoyl]amino]butyl]boronic acid

> <PUBCHEM_IUPAC_INCHI>
InChI=1S/C19H25BN4O4/c1-13(2)10-17(20(27)28)24-18(25)15(11-14-6-4-3-5-7-14)23-19(26)16-12-21-8-9-22-16/h3-9,12-13,15,17,27-28H,10-11H2,1-2H3,(H,23,26)(H,24,25)/t15-,17-/m0/s1

> <PUBCHEM_IUPAC_INCHIKEY>
GXJABQQUPOEUTA-RDJZCZTQSA-N

> <PUBCHEM_EXACT_MASS>
384.196886

> <PUBCHEM_MOLECULAR_FORMULA>
C19H25BN4O4

> <PUBCHEM_MOLECULAR_WEIGHT>
384.2

> <PUBCHEM_OPENEYE_CAN_SMILES>
B(C(CC(C)C)NC(=O)C(CC1=CC=CC=C1)NC(=O)C2=NC=CN=C2)(O)O

> <PUBCHEM_OPENEYE_ISO_SMILES>
B([C@H](CC(C)C)NC(=O)[C@H](CC1=CC=CC=C1)NC(=O)C2=NC=CN=C2)(O)O

> <PUBCHEM_CACTVS_TPSA>
124

> <PUBCHEM_MONOISOTOPIC_WEIGHT>
384.196886

> <PUBCHEM_TOTAL_CHARGE>
0

> <PUBCHEM_HEAVY_ATOM_COUNT>
28

> <PUBCHEM_ATOM_DEF_STEREO_COUNT>
2

> <PUBCHEM_ATOM_UDEF_STEREO_COUNT>
0

> <PUBCHEM_BOND_DEF_STEREO_COUNT>
0

> <PUBCHEM_BOND_UDEF_STEREO_COUNT>
0

> <PUBCHEM_ISOTOPIC_ATOM_COUNT>
0

> <PUBCHEM_COMPONENT_COUNT>
1

> <PUBCHEM_CACTVS_TAUTO_COUNT>
-1

> <PUBCHEM_COORDINATE_TYPE>
1
5
255

> <PUBCHEM_BONDANNOTATIONS>
17  18  8
17  19  8
18  21  8
19  22  8
21  23  8
22  23  8
24  25  8
26  27  8
11  5  5
12  6  5
7  24  8
7  26  8
8  25  8
8  27  8

$$$$
16095342
  -OEChem-02182015172D

 72 77  0     0  0  0  0  0  0999 V2000
    2.0000   -5.7498    0.0000 O   0  0  0  0  0  0  0  0  0  0  0  0
    5.4641   -2.7498    0.0000 O   0  0  0  0  0  0  0  0  0  0  0  0
    8.0622    4.7502    0.0000 O   0  0  0  0  0  0  0  0  0  0  0  0
   14.7289    4.2502    0.0000 O   0  0  0  0  0  0  0  0  0  0  0  0
    4.5981    1.7502    0.0000 O   0  0  0  0  0  0  0  0  0  0  0  0
    3.7320   -4.7498    0.0000 N   0  0  0  0  0  0  0  0  0  0  0  0
   11.6065    4.5550    0.0000 N   0  0  0  0  0  0  0  0  0  0  0  0
   11.6065    2.9455    0.0000 N   0  0  0  0  0  0  0  0  0  0  0  0
    8.9282    3.2502    0.0000 N   0  0  0  0  0  0  0  0  0  0  0  0
   13.7779    4.5592    0.0000 N   0  0  0  0  0  0  0  0  0  0  0  0
    6.3301    1.7502    0.0000 N   0  0  0  0  0  0  0  0  0  0  0  0
   14.7289    3.2502    0.0000 N   0  0  0  0  0  0  0  0  0  0  0  0
   13.4689    1.9902    0.0000 N   0  0  0  0  0  0  0  0  0  0  0  0
    3.7320   -5.7498    0.0000 C   0  0  0  0  0  0  0  0  0  0  0  0
    2.8660   -4.2498    0.0000 C   0  0  0  0  0  0  0  0  0  0  0  0
    4.5981   -4.2498    0.0000 C   0  0  0  0  0  0  0  0  0  0  0  0
    2.8660   -6.2498    0.0000 C   0  0  0  0  0  0  0  0  0  0  0  0
    2.0000   -4.7498    0.0000 C   0  0  0  0  0  0  0  0  0  0  0  0
    4.5981   -3.2498    0.0000 C   0  0  0  0  0  0  0  0  0  0  0  0
   10.6603    4.2502    0.0000 C   0  0  0  0  0  0  0  0  0  0  0  0
   11.9171    5.5055    0.0000 C   0  0  0  0  0  0  0  0  0  0  0  0
   12.1901    3.7502    0.0000 C   0  0  0  0  0  0  0  0  0  0  0  0
   10.6603    3.2502    0.0000 C   0  0  0  0  0  0  0  0  0  0  0  0
    5.4641   -1.7498    0.0000 C   0  0  0  0  0  0  0  0  0  0  0  0
    9.7942    4.7502    0.0000 C   0  0  0  0  0  0  0  0  0  0  0  0
   13.1901    3.7502    0.0000 C   0  0  0  0  0  0  0  0  0  0  0  0
   11.2493    6.2498    0.0000 C   0  0  0  0  0  0  0  0  0  0  0  0
    9.7942    2.7502    0.0000 C   0  0  0  0  0  0  0  0  0  0  0  0
    8.9282    4.2502    0.0000 C   0  0  0  0  0  0  0  0  0  0  0  0
    6.3301   -1.2498    0.0000 C   0  0  0  0  0  0  0  0  0  0  0  0
    4.5981   -1.2498    0.0000 C   0  0  0  0  0  0  0  0  0  0  0  0
    5.4641    0.2502    0.0000 C   0  0  0  0  0  0  0  0  0  0  0  0
   13.7779    2.9412    0.0000 C   0  0  0  0  0  0  0  0  0  0  0  0
    6.3301   -0.2498    0.0000 C   0  0  0  0  0  0  0  0  0  0  0  0
    4.5981   -0.2498    0.0000 C   0  0  0  0  0  0  0  0  0  0  0  0
    7.1962    4.2502    0.0000 C   0  0  0  0  0  0  0  0  0  0  0  0
    5.4641    1.2502    0.0000 C   0  0  0  0  0  0  0  0  0  0  0  0
    6.3301    2.7502    0.0000 C   0  0  0  0  0  0  0  0  0  0  0  0
    7.1962    3.2502    0.0000 C   0  0  0  0  0  0  0  0  0  0  0  0
    6.3301    4.7502    0.0000 C   0  0  0  0  0  0  0  0  0  0  0  0
    5.4641    3.2502    0.0000 C   0  0  0  0  0  0  0  0  0  0  0  0
    5.4641    4.2502    0.0000 C   0  0  0  0  0  0  0  0  0  0  0  0
    3.9441   -6.3324    0.0000 H   0  0  0  0  0  0  0  0  0  0  0  0
    4.3426   -5.6421    0.0000 H   0  0  0  0  0  0  0  0  0  0  0  0
    3.2646   -3.7748    0.0000 H   0  0  0  0  0  0  0  0  0  0  0  0
    2.4675   -3.7748    0.0000 H   0  0  0  0  0  0  0  0  0  0  0  0
    4.8101   -4.8324    0.0000 H   0  0  0  0  0  0  0  0  0  0  0  0
    5.2087   -4.1421    0.0000 H   0  0  0  0  0  0  0  0  0  0  0  0
    2.4675   -6.7247    0.0000 H   0  0  0  0  0  0  0  0  0  0  0  0
    3.2646   -6.7247    0.0000 H   0  0  0  0  0  0  0  0  0  0  0  0
    1.7880   -4.1672    0.0000 H   0  0  0  0  0  0  0  0  0  0  0  0
    1.3894   -4.8574    0.0000 H   0  0  0  0  0  0  0  0  0  0  0  0
    4.3860   -2.6672    0.0000 H   0  0  0  0  0  0  0  0  0  0  0  0
    3.9875   -3.3574    0.0000 H   0  0  0  0  0  0  0  0  0  0  0  0
   12.4641    5.2135    0.0000 H   0  0  0  0  0  0  0  0  0  0  0  0
   12.2997    5.9934    0.0000 H   0  0  0  0  0  0  0  0  0  0  0  0
    9.7942    5.3702    0.0000 H   0  0  0  0  0  0  0  0  0  0  0  0
   11.7108    6.6638    0.0000 H   0  0  0  0  0  0  0  0  0  0  0  0
   10.8352    6.7112    0.0000 H   0  0  0  0  0  0  0  0  0  0  0  0
   10.7878    5.8357    0.0000 H   0  0  0  0  0  0  0  0  0  0  0  0
    9.7942    2.1302    0.0000 H   0  0  0  0  0  0  0  0  0  0  0  0
    6.8671   -1.5598    0.0000 H   0  0  0  0  0  0  0  0  0  0  0  0
    4.0611   -1.5598    0.0000 H   0  0  0  0  0  0  0  0  0  0  0  0
    6.8671    0.0602    0.0000 H   0  0  0  0  0  0  0  0  0  0  0  0
    4.0611    0.0602    0.0000 H   0  0  0  0  0  0  0  0  0  0  0  0
    7.7331    2.9402    0.0000 H   0  0  0  0  0  0  0  0  0  0  0  0
    6.8671    1.4402    0.0000 H   0  0  0  0  0  0  0  0  0  0  0  0
    6.3301    5.3702    0.0000 H   0  0  0  0  0  0  0  0  0  0  0  0
    4.9272    2.9402    0.0000 H   0  0  0  0  0  0  0  0  0  0  0  0
   13.8837    1.5294    0.0000 H   0  0  0  0  0  0  0  0  0  0  0  0
   12.8624    1.8612    0.0000 H   0  0  0  0  0  0  0  0  0  0  0  0
    4.9272    4.5602    0.0000 H   0  0  0  0  0  0  0  0  0  0  0  0
  1 17  1  0  0  0  0
  1 18  1  0  0  0  0
  2 19  1  0  0  0  0
  2 24  1  0  0  0  0
  3 29  1  0  0  0  0
  3 36  1  0  0  0  0
  4 10  1  0  0  0  0
  4 12  1  0  0  0  0
  5 37  2  0  0  0  0
  6 14  1  0  0  0  0
  6 15  1  0  0  0  0
  6 16  1  0  0  0  0
  7 20  1  0  0  0  0
  7 21  1  0  0  0  0
  7 22  1  0  0  0  0
  8 22  2  0  0  0  0
  8 23  1  0  0  0  0
  9 28  1  0  0  0  0
  9 29  2  0  0  0  0
 10 26  2  0  0  0  0
 11 37  1  0  0  0  0
 11 38  1  0  0  0  0
 11 67  1  0  0  0  0
 12 33  2  0  0  0  0
 13 33  1  0  0  0  0
 13 70  1  0  0  0  0
 13 71  1  0  0  0  0
 14 17  1  0  0  0  0
 14 43  1  0  0  0  0
 14 44  1  0  0  0  0
 15 18  1  0  0  0  0
 15 45  1  0  0  0  0
 15 46  1  0  0  0  0
 16 19  1  0  0  0  0
 16 47  1  0  0  0  0
 16 48  1  0  0  0  0
 17 49  1  0  0  0  0
 17 50  1  0  0  0  0
 18 51  1  0  0  0  0
 18 52  1  0  0  0  0
 19 53  1  0  0  0  0
 19 54  1  0  0  0  0
 20 23  1  0  0  0  0
 20 25  2  0  0  0  0
 21 27  1  0  0  0  0
 21 55  1  0  0  0  0
 21 56  1  0  0  0  0
 22 26  1  0  0  0  0
 23 28  2  0  0  0  0
 24 30  2  0  0  0  0
 24 31  1  0  0  0  0
 25 29  1  0  0  0  0
 25 57  1  0  0  0  0
 26 33  1  0  0  0  0
 27 58  1  0  0  0  0
 27 59  1  0  0  0  0
 27 60  1  0  0  0  0
 28 61  1  0  0  0  0
 30 34  1  0  0  0  0
 30 62  1  0  0  0  0
 31 35  2  0  0  0  0
 31 63  1  0  0  0  0
 32 34  2  0  0  0  0
 32 35  1  0  0  0  0
 32 37  1  0  0  0  0
 34 64  1  0  0  0  0
 35 65  1  0  0  0  0
 36 39  1  0  0  0  0
 36 40  2  0  0  0  0
 38 39  2  0  0  0  0
 38 41  1  0  0  0  0
 39 66  1  0  0  0  0
 40 42  1  0  0  0  0
 40 68  1  0  0  0  0
 41 42  2  0  0  0  0
 41 69  1  0  0  0  0
 42 72  1  0  0  0  0
M  END
> <PUBCHEM_COMPOUND_CID>
16095342

> <PUBCHEM_COMPOUND_CANONICALIZED>
1

> <PUBCHEM_CACTVS_COMPLEXITY>
860

> <PUBCHEM_CACTVS_HBOND_ACCEPTOR>
11

> <PUBCHEM_CACTVS_HBOND_DONOR>
2

> <PUBCHEM_CACTVS_ROTATABLE_BOND>
10

> <PUBCHEM_CACTVS_SUBSKEYS>
AAADceB7+AAAAAAAAAAAAAAAAAAAAWLAAAA8eIEAAAAAAFgB/gAAHgAUAAAADAzhnwY/9rfcFACpAzd3dgCCiC01MqAp2CE+fNqObvLE/dufPSju1JvY6ae43APOIAAAAgAAAABAAAAEAAAAAAAAAAAAAA==

> <PUBCHEM_IUPAC_OPENEYE_NAME>
N-[3-[2-(4-amino-1,2,5-oxadiazol-3-yl)-1-ethyl-imidazo[4,5-c]pyridin-6-yl]oxyphenyl]-4-(2-morpholinoethoxy)benzamide

> <PUBCHEM_IUPAC_CAS_NAME>
N-[3-[[2-(4-amino-1,2,5-oxadiazol-3-yl)-1-ethyl-6-imidazo[4,5-c]pyridinyl]oxy]phenyl]-4-[2-(4-morpholinyl)ethoxy]benzamide

> <PUBCHEM_IUPAC_NAME_MARKUP>
<I>N</I>-[3-[2-(4-amino-1,2,5-oxadiazol-3-yl)-1-ethylimidazo[4,5-c]pyridin-6-yl]oxyphenyl]-4-(2-morpholin-4-ylethoxy)benzamide

> <PUBCHEM_IUPAC_NAME>
N-[3-[2-(4-amino-1,2,5-oxadiazol-3-yl)-1-ethylimidazo[4,5-c]pyridin-6-yl]oxyphenyl]-4-(2-morpholin-4-ylethoxy)benzamide

> <PUBCHEM_IUPAC_SYSTEMATIC_NAME>
N-[3-[2-(4-azanyl-1,2,5-oxadiazol-3-yl)-1-ethyl-imidazo[4,5-c]pyridin-6-yl]oxyphenyl]-4-(2-morpholin-4-ylethoxy)benzamide

> <PUBCHEM_IUPAC_TRADITIONAL_NAME>
N-[3-[2-(4-aminofurazan-3-yl)-1-ethyl-imidazo[4,5-c]pyridin-6-yl]oxyphenyl]-4-(2-morpholinoethoxy)benzamide

> <PUBCHEM_IUPAC_INCHI>
InChI=1S/C29H30N8O5/c1-2-37-24-17-25(31-18-23(24)33-28(37)26-27(30)35-42-34-26)41-22-5-3-4-20(16-22)32-29(38)19-6-8-21(9-7-19)40-15-12-36-10-13-39-14-11-36/h3-9,16-18H,2,10-15H2,1H3,(H2,30,35)(H,32,38)

> <PUBCHEM_IUPAC_INCHIKEY>
YOVNFNXUCOWYSG-UHFFFAOYSA-N

> <PUBCHEM_XLOGP3_AA>
2.2

> <PUBCHEM_EXACT_MASS>
570.233916

> <PUBCHEM_MOLECULAR_FORMULA>
C29H30N8O5

> <PUBCHEM_MOLECULAR_WEIGHT>
570.6

> <PUBCHEM_OPENEYE_CAN_SMILES>
CCN1C2=CC(=NC=C2N=C1C3=NON=C3N)OC4=CC=CC(=C4)NC(=O)C5=CC=C(C=C5)OCCN6CCOCC6

> <PUBCHEM_OPENEYE_ISO_SMILES>
CCN1C2=CC(=NC=C2N=C1C3=NON=C3N)OC4=CC=CC(=C4)NC(=O)C5=CC=C(C=C5)OCCN6CCOCC6

> <PUBCHEM_CACTVS_TPSA>
156

> <PUBCHEM_MONOISOTOPIC_WEIGHT>
570.233916

> <PUBCHEM_TOTAL_CHARGE>
0

> <PUBCHEM_HEAVY_ATOM_COUNT>
42

> <PUBCHEM_ATOM_DEF_STEREO_COUNT>
0

> <PUBCHEM_ATOM_UDEF_STEREO_COUNT>
0

> <PUBCHEM_BOND_DEF_STEREO_COUNT>
0

> <PUBCHEM_BOND_UDEF_STEREO_COUNT>
0

> <PUBCHEM_ISOTOPIC_ATOM_COUNT>
0

> <PUBCHEM_COMPONENT_COUNT>
1

> <PUBCHEM_CACTVS_TAUTO_COUNT>
-1

> <PUBCHEM_COORDINATE_TYPE>
1
5
255

> <PUBCHEM_BONDANNOTATIONS>
10  26  8
12  33  8
20  23  8
20  25  8
23  28  8
24  30  8
24  31  8
25  29  8
26  33  8
30  34  8
31  35  8
32  34  8
32  35  8
36  39  8
36  40  8
38  39  8
38  41  8
4  10  8
4  12  8
40  42  8
41  42  8
7  20  8
7  22  8
8  22  8
8  23  8
9  28  8
9  29  8

$$$$
11707110
  -OEChem-02182015172D

 60 64  0     0  0  0  0  0  0999 V2000
    2.0000   -4.7873    0.0000 I   0  0  0  0  0  0  0  0  0  0  0  0
    5.4639   -4.7472    0.0000 F   0  0  0  0  0  0  0  0  0  0  0  0
    7.1892   -2.7127    0.0000 O   0  0  0  0  0  0  0  0  0  0  0  0
    8.9212    0.2873    0.0000 O   0  0  0  0  0  0  0  0  0  0  0  0
    3.6590    0.3114    0.0000 O   0  0  0  0  0  0  0  0  0  0  0  0
    8.0552    4.7873    0.0000 O   0  0  0  0  0  0  0  0  0  0  0  0
    8.0552   -1.2127    0.0000 N   0  0  0  0  0  0  0  0  0  0  0  0
    7.1892    0.2873    0.0000 N   0  0  0  0  0  0  0  0  0  0  0  0
    4.5231   -1.2336    0.0000 N   0  0  0  0  0  0  0  0  0  0  0  0
    5.4407   -2.7473    0.0000 N   0  0  0  0  0  0  0  0  0  0  0  0
    8.9212    3.2873    0.0000 N   0  0  0  0  0  0  0  0  0  0  0  0
    8.9212   -1.7127    0.0000 C   0  0  0  0  0  0  0  0  0  0  0  0
    9.4212   -2.5788    0.0000 C   0  0  0  0  0  0  0  0  0  0  0  0
    9.9212   -1.7127    0.0000 C   0  0  0  0  0  0  0  0  0  0  0  0
    7.1892   -1.7127    0.0000 C   0  0  0  0  0  0  0  0  0  0  0  0
    8.0552   -0.2127    0.0000 C   0  0  0  0  0  0  0  0  0  0  0  0
    6.3231   -1.2127    0.0000 C   0  0  0  0  0  0  0  0  0  0  0  0
    6.3231   -0.2127    0.0000 C   0  0  0  0  0  0  0  0  0  0  0  0
    5.4292   -1.7474    0.0000 C   0  0  0  0  0  0  0  0  0  0  0  0
    5.4292    0.3219    0.0000 C   0  0  0  0  0  0  0  0  0  0  0  0
    7.1892    1.2873    0.0000 C   0  0  0  0  0  0  0  0  0  0  0  0
    4.5231   -0.1919    0.0000 C   0  0  0  0  0  0  0  0  0  0  0  0
    5.4407    1.3218    0.0000 C   0  0  0  0  0  0  0  0  0  0  0  0
    8.0552    1.7873    0.0000 C   0  0  0  0  0  0  0  0  0  0  0  0
    6.3231    1.7873    0.0000 C   0  0  0  0  0  0  0  0  0  0  0  0
    3.6590   -1.7369    0.0000 C   0  0  0  0  0  0  0  0  0  0  0  0
    4.5806   -3.2573    0.0000 C   0  0  0  0  0  0  0  0  0  0  0  0
    8.0552    2.7873    0.0000 C   0  0  0  0  0  0  0  0  0  0  0  0
    6.3231    2.7873    0.0000 C   0  0  0  0  0  0  0  0  0  0  0  0
    7.1892    3.2873    0.0000 C   0  0  0  0  0  0  0  0  0  0  0  0
    4.5921   -4.2572    0.0000 C   0  0  0  0  0  0  0  0  0  0  0  0
    3.7088   -2.7674    0.0000 C   0  0  0  0  0  0  0  0  0  0  0  0
    3.7319   -4.7672    0.0000 C   0  0  0  0  0  0  0  0  0  0  0  0
    2.8486   -3.2773    0.0000 C   0  0  0  0  0  0  0  0  0  0  0  0
    2.8602   -4.2773    0.0000 C   0  0  0  0  0  0  0  0  0  0  0  0
    8.9212    4.2873    0.0000 C   0  0  0  0  0  0  0  0  0  0  0  0
    9.7872    4.7873    0.0000 C   0  0  0  0  0  0  0  0  0  0  0  0
    8.4828   -2.1512    0.0000 H   0  0  0  0  0  0  0  0  0  0  0  0
    8.9462   -2.9773    0.0000 H   0  0  0  0  0  0  0  0  0  0  0  0
    9.8962   -2.9773    0.0000 H   0  0  0  0  0  0  0  0  0  0  0  0
   10.5038   -1.9248    0.0000 H   0  0  0  0  0  0  0  0  0  0  0  0
   10.0289   -1.1022    0.0000 H   0  0  0  0  0  0  0  0  0  0  0  0
    5.9812   -3.0511    0.0000 H   0  0  0  0  0  0  0  0  0  0  0  0
    6.0607    1.3147    0.0000 H   0  0  0  0  0  0  0  0  0  0  0  0
    5.4479    1.9418    0.0000 H   0  0  0  0  0  0  0  0  0  0  0  0
    4.8208    1.3290    0.0000 H   0  0  0  0  0  0  0  0  0  0  0  0
    8.5921    1.4773    0.0000 H   0  0  0  0  0  0  0  0  0  0  0  0
    5.7862    1.4773    0.0000 H   0  0  0  0  0  0  0  0  0  0  0  0
    3.3470   -1.2012    0.0000 H   0  0  0  0  0  0  0  0  0  0  0  0
    3.1233   -2.0490    0.0000 H   0  0  0  0  0  0  0  0  0  0  0  0
    3.9711   -2.2726    0.0000 H   0  0  0  0  0  0  0  0  0  0  0  0
    5.7862    3.0973    0.0000 H   0  0  0  0  0  0  0  0  0  0  0  0
    7.1892    3.9073    0.0000 H   0  0  0  0  0  0  0  0  0  0  0  0
    3.7016   -2.1474    0.0000 H   0  0  0  0  0  0  0  0  0  0  0  0
    9.4581    2.9773    0.0000 H   0  0  0  0  0  0  0  0  0  0  0  0
    3.7391   -5.3872    0.0000 H   0  0  0  0  0  0  0  0  0  0  0  0
    2.3081   -2.9736    0.0000 H   0  0  0  0  0  0  0  0  0  0  0  0
   10.0972    4.2503    0.0000 H   0  0  0  0  0  0  0  0  0  0  0  0
   10.3242    5.0973    0.0000 H   0  0  0  0  0  0  0  0  0  0  0  0
    9.4772    5.3242    0.0000 H   0  0  0  0  0  0  0  0  0  0  0  0
  1 35  1  0  0  0  0
  2 31  1  0  0  0  0
  3 15  2  0  0  0  0
  4 16  2  0  0  0  0
  5 22  2  0  0  0  0
  6 36  2  0  0  0  0
  7 12  1  0  0  0  0
  7 15  1  0  0  0  0
  7 16  1  0  0  0  0
  8 16  1  0  0  0  0
  8 18  1  0  0  0  0
  8 21  1  0  0  0  0
  9 19  1  0  0  0  0
  9 22  1  0  0  0  0
  9 26  1  0  0  0  0
 10 19  1  0  0  0  0
 10 27  1  0  0  0  0
 10 43  1  0  0  0  0
 11 28  1  0  0  0  0
 11 36  1  0  0  0  0
 11 55  1  0  0  0  0
 12 13  1  0  0  0  0
 12 14  1  0  0  0  0
 12 38  1  0  0  0  0
 13 14  1  0  0  0  0
 13 39  1  0  0  0  0
 13 40  1  0  0  0  0
 14 41  1  0  0  0  0
 14 42  1  0  0  0  0
 15 17  1  0  0  0  0
 17 18  1  0  0  0  0
 17 19  2  0  0  0  0
 18 20  2  0  0  0  0
 20 22  1  0  0  0  0
 20 23  1  0  0  0  0
 21 24  1  0  0  0  0
 21 25  2  0  0  0  0
 23 44  1  0  0  0  0
 23 45  1  0  0  0  0
 23 46  1  0  0  0  0
 24 28  2  0  0  0  0
 24 47  1  0  0  0  0
 25 29  1  0  0  0  0
 25 48  1  0  0  0  0
 26 49  1  0  0  0  0
 26 50  1  0  0  0  0
 26 51  1  0  0  0  0
 27 31  2  0  0  0  0
 27 32  1  0  0  0  0
 28 30  1  0  0  0  0
 29 30  2  0  0  0  0
 29 52  1  0  0  0  0
 30 53  1  0  0  0  0
 31 33  1  0  0  0  0
 32 34  2  0  0  0  0
 32 54  1  0  0  0  0
 33 35  2  0  0  0  0
 33 56  1  0  0  0  0
 34 35  1  0  0  0  0
 34 57  1  0  0  0  0
 36 37  1  0  0  0  0
 37 58  1  0  0  0  0
 37 59  1  0  0  0  0
 37 60  1  0  0  0  0
M  END
> <PUBCHEM_COMPOUND_CID>
11707110

> <PUBCHEM_COMPOUND_CANONICALIZED>
1

> <PUBCHEM_CACTVS_COMPLEXITY>
1090

> <PUBCHEM_CACTVS_HBOND_ACCEPTOR>
6

> <PUBCHEM_CACTVS_HBOND_DONOR>
2

> <PUBCHEM_CACTVS_ROTATABLE_BOND>
5

> <PUBCHEM_CACTVS_SUBSKEYS>
AAADceB7uQAAAgAAAAAAAAAAGAAAAAAAAAA8YIEAAAAAAACBQAAAHwAwAAAADCjDkAwzwIPAAACIAiVSUACCAAAhAgAIiAEIZMiIICrA0dGEIAholyLIyWcQAAAAAAAAAAQAAAAAAAAACAAAAAAAAAAAAA==

> <PUBCHEM_IUPAC_OPENEYE_NAME>
N-[3-[3-cyclopropyl-5-(2-fluoro-4-iodo-anilino)-6,8-dimethyl-2,4,7-trioxo-pyrido[4,3-d]pyrimidin-1-yl]phenyl]acetamide

> <PUBCHEM_IUPAC_CAS_NAME>
N-[3-[3-cyclopropyl-5-(2-fluoro-4-iodoanilino)-6,8-dimethyl-2,4,7-trioxo-1-pyrido[4,3-d]pyrimidinyl]phenyl]acetamide

> <PUBCHEM_IUPAC_NAME_MARKUP>
<I>N</I>-[3-[3-cyclopropyl-5-(2-fluoro-4-iodoanilino)-6,8-dimethyl-2,4,7-trioxopyrido[4,3-d]pyrimidin-1-yl]phenyl]acetamide

> <PUBCHEM_IUPAC_NAME>
N-[3-[3-cyclopropyl-5-(2-fluoro-4-iodoanilino)-6,8-dimethyl-2,4,7-trioxopyrido[4,3-d]pyrimidin-1-yl]phenyl]acetamide

> <PUBCHEM_IUPAC_SYSTEMATIC_NAME>
N-[3-[3-cyclopropyl-5-[(2-fluoranyl-4-iodanyl-phenyl)amino]-6,8-dimethyl-2,4,7-tris(oxidanylidene)pyrido[4,3-d]pyrimidin-1-yl]phenyl]ethanamide

> <PUBCHEM_IUPAC_TRADITIONAL_NAME>
N-[3-[3-cyclopropyl-5-(2-fluoro-4-iodo-anilino)-2,4,7-triketo-6,8-dimethyl-pyrido[4,3-d]pyrimidin-1-yl]phenyl]acetamide

> <PUBCHEM_IUPAC_INCHI>
InChI=1S/C26H23FIN5O4/c1-13-22-21(23(31(3)24(13)35)30-20-10-7-15(28)11-19(20)27)25(36)33(17-8-9-17)26(37)32(22)18-6-4-5-16(12-18)29-14(2)34/h4-7,10-12,17,30H,8-9H2,1-3H3,(H,29,34)

> <PUBCHEM_IUPAC_INCHIKEY>
LIRYPHYGHXZJBZ-UHFFFAOYSA-N

> <PUBCHEM_XLOGP3_AA>
3.4

> <PUBCHEM_EXACT_MASS>
615.07788

> <PUBCHEM_MOLECULAR_FORMULA>
C26H23FIN5O4

> <PUBCHEM_MOLECULAR_WEIGHT>
615.4

> <PUBCHEM_OPENEYE_CAN_SMILES>
CC1=C2C(=C(N(C1=O)C)NC3=C(C=C(C=C3)I)F)C(=O)N(C(=O)N2C4=CC=CC(=C4)NC(=O)C)C5CC5

> <PUBCHEM_OPENEYE_ISO_SMILES>
CC1=C2C(=C(N(C1=O)C)NC3=C(C=C(C=C3)I)F)C(=O)N(C(=O)N2C4=CC=CC(=C4)NC(=O)C)C5CC5

> <PUBCHEM_CACTVS_TPSA>
102

> <PUBCHEM_MONOISOTOPIC_WEIGHT>
615.07788

> <PUBCHEM_TOTAL_CHARGE>
0

> <PUBCHEM_HEAVY_ATOM_COUNT>
37

> <PUBCHEM_ATOM_DEF_STEREO_COUNT>
0

> <PUBCHEM_ATOM_UDEF_STEREO_COUNT>
0

> <PUBCHEM_BOND_DEF_STEREO_COUNT>
0

> <PUBCHEM_BOND_UDEF_STEREO_COUNT>
0

> <PUBCHEM_ISOTOPIC_ATOM_COUNT>
0

> <PUBCHEM_COMPONENT_COUNT>
1

> <PUBCHEM_CACTVS_TAUTO_COUNT>
-1

> <PUBCHEM_COORDINATE_TYPE>
1
5
255

> <PUBCHEM_BONDANNOTATIONS>
15  17  8
17  18  8
17  19  8
18  20  8
20  22  8
21  24  8
21  25  8
24  28  8
25  29  8
27  31  8
27  32  8
28  30  8
29  30  8
31  33  8
32  34  8
33  35  8
34  35  8
7  15  8
7  16  8
8  16  8
8  18  8
9  19  8
9  22  8

$$$$
49846579
  -OEChem-02182015172D

111118  0     0  0  0  0  0  0999 V2000
    8.1962   -9.7500    0.0000 Cl  0  0  0  0  0  0  0  0  0  0  0  0
    4.7320    2.2500    0.0000 S   0  0  0  0  0  0  0  0  0  0  0  0
    3.8660    9.7500    0.0000 O   0  0  0  0  0  0  0  0  0  0  0  0
    7.3301   -0.2500    0.0000 O   0  0  0  0  0  0  0  0  0  0  0  0
    6.4641    1.2500    0.0000 O   0  0  0  0  0  0  0  0  0  0  0  0
    3.7320    2.2500    0.0000 O   0  0  0  0  0  0  0  0  0  0  0  0
    5.7320    2.2500    0.0000 O   0  0  0  0  0  0  0  0  0  0  0  0
    7.3301    4.7500    0.0000 O   0  5  0  0  0  0  0  0  0  0  0  0
    6.4641    6.2500    0.0000 O   0  0  0  0  0  0  0  0  0  0  0  0
    5.5981   -5.2500    0.0000 N   0  0  0  0  0  0  0  0  0  0  0  0
    5.5981   -3.2500    0.0000 N   0  0  0  0  0  0  0  0  0  0  0  0
    4.7320    6.2500    0.0000 N   0  0  0  0  0  0  0  0  0  0  0  0
    4.7320    1.2500    0.0000 N   0  0  0  0  0  0  0  0  0  0  0  0
    6.4641    5.2500    0.0000 N   0  3  0  0  0  0  0  0  0  0  0  0
    9.0622   -2.2500    0.0000 N   0  0  0  0  0  0  0  0  0  0  0  0
   10.8744   -2.0547    0.0000 N   0  0  0  0  0  0  0  0  0  0  0  0
    3.0000   -7.7500    0.0000 C   0  0  0  0  0  0  0  0  0  0  0  0
    3.0000   -6.7500    0.0000 C   0  0  0  0  0  0  0  0  0  0  0  0
    3.8660   -8.2500    0.0000 C   0  0  0  0  0  0  0  0  0  0  0  0
    3.8660   -6.2500    0.0000 C   0  0  0  0  0  0  0  0  0  0  0  0
    4.7320   -6.7500    0.0000 C   0  0  0  0  0  0  0  0  0  0  0  0
    4.7320   -7.7500    0.0000 C   0  0  0  0  0  0  0  0  0  0  0  0
    5.5981   -6.2500    0.0000 C   0  0  0  0  0  0  0  0  0  0  0  0
    2.0000   -7.7500    0.0000 C   0  0  0  0  0  0  0  0  0  0  0  0
    2.5000   -8.6160    0.0000 C   0  0  0  0  0  0  0  0  0  0  0  0
    6.4641   -4.7500    0.0000 C   0  0  0  0  0  0  0  0  0  0  0  0
    4.7320   -4.7500    0.0000 C   0  0  0  0  0  0  0  0  0  0  0  0
    5.5981   -8.2500    0.0000 C   0  0  0  0  0  0  0  0  0  0  0  0
    6.4641   -3.7500    0.0000 C   0  0  0  0  0  0  0  0  0  0  0  0
    4.7320   -3.7500    0.0000 C   0  0  0  0  0  0  0  0  0  0  0  0
    6.4641   -7.7500    0.0000 C   0  0  0  0  0  0  0  0  0  0  0  0
    5.5981   -9.2500    0.0000 C   0  0  0  0  0  0  0  0  0  0  0  0
    5.5981   -2.2500    0.0000 C   0  0  0  0  0  0  0  0  0  0  0  0
    7.3301   -8.2500    0.0000 C   0  0  0  0  0  0  0  0  0  0  0  0
    6.4641   -9.7500    0.0000 C   0  0  0  0  0  0  0  0  0  0  0  0
    3.8660    7.7500    0.0000 C   0  0  0  0  0  0  0  0  0  0  0  0
    6.4641   -1.7500    0.0000 C   0  0  0  0  0  0  0  0  0  0  0  0
    4.7320   -1.7500    0.0000 C   0  0  0  0  0  0  0  0  0  0  0  0
    7.3301   -9.2500    0.0000 C   0  0  0  0  0  0  0  0  0  0  0  0
    3.0000    8.2500    0.0000 C   0  0  0  0  0  0  0  0  0  0  0  0
    4.7320    8.2500    0.0000 C   0  0  0  0  0  0  0  0  0  0  0  0
    3.8660    6.7500    0.0000 C   0  0  0  0  0  0  0  0  0  0  0  0
    3.0000    9.2500    0.0000 C   0  0  0  0  0  0  0  0  0  0  0  0
    4.7320    9.2500    0.0000 C   0  0  0  0  0  0  0  0  0  0  0  0
    6.4641   -0.7500    0.0000 C   0  0  0  0  0  0  0  0  0  0  0  0
    4.7320   -0.7500    0.0000 C   0  0  0  0  0  0  0  0  0  0  0  0
    5.5981   -0.2500    0.0000 C   0  0  0  0  0  0  0  0  0  0  0  0
    4.7320    5.2500    0.0000 C   0  0  0  0  0  0  0  0  0  0  0  0
    5.5981    0.7500    0.0000 C   0  0  0  0  0  0  0  0  0  0  0  0
    5.5981    4.7500    0.0000 C   0  0  0  0  0  0  0  0  0  0  0  0
    3.8660    4.7500    0.0000 C   0  0  0  0  0  0  0  0  0  0  0  0
    4.7320    3.2500    0.0000 C   0  0  0  0  0  0  0  0  0  0  0  0
    5.5981    3.7500    0.0000 C   0  0  0  0  0  0  0  0  0  0  0  0
    3.8660    3.7500    0.0000 C   0  0  0  0  0  0  0  0  0  0  0  0
    8.1962   -0.7500    0.0000 C   0  0  0  0  0  0  0  0  0  0  0  0
    9.0622   -0.2500    0.0000 C   0  0  0  0  0  0  0  0  0  0  0  0
    8.1962   -1.7500    0.0000 C   0  0  0  0  0  0  0  0  0  0  0  0
    9.9282   -0.7500    0.0000 C   0  0  0  0  0  0  0  0  0  0  0  0
    9.9282   -1.7500    0.0000 C   0  0  0  0  0  0  0  0  0  0  0  0
   10.8744   -0.4453    0.0000 C   0  0  0  0  0  0  0  0  0  0  0  0
   11.4580   -1.2500    0.0000 C   0  0  0  0  0  0  0  0  0  0  0  0
    2.7880   -6.1674    0.0000 H   0  0  0  0  0  0  0  0  0  0  0  0
    2.3894   -6.8577    0.0000 H   0  0  0  0  0  0  0  0  0  0  0  0
    3.4675   -8.7250    0.0000 H   0  0  0  0  0  0  0  0  0  0  0  0
    4.2646   -8.7250    0.0000 H   0  0  0  0  0  0  0  0  0  0  0  0
    4.2646   -5.7750    0.0000 H   0  0  0  0  0  0  0  0  0  0  0  0
    3.4675   -5.7750    0.0000 H   0  0  0  0  0  0  0  0  0  0  0  0
    5.8101   -6.8326    0.0000 H   0  0  0  0  0  0  0  0  0  0  0  0
    6.2087   -6.1423    0.0000 H   0  0  0  0  0  0  0  0  0  0  0  0
    2.0000   -7.1300    0.0000 H   0  0  0  0  0  0  0  0  0  0  0  0
    1.3800   -7.7500    0.0000 H   0  0  0  0  0  0  0  0  0  0  0  0
    2.0000   -8.3700    0.0000 H   0  0  0  0  0  0  0  0  0  0  0  0
    1.9631   -8.3060    0.0000 H   0  0  0  0  0  0  0  0  0  0  0  0
    2.1900   -9.1530    0.0000 H   0  0  0  0  0  0  0  0  0  0  0  0
    3.0369   -8.9260    0.0000 H   0  0  0  0  0  0  0  0  0  0  0  0
    6.6762   -5.3326    0.0000 H   0  0  0  0  0  0  0  0  0  0  0  0
    7.0747   -4.6423    0.0000 H   0  0  0  0  0  0  0  0  0  0  0  0
    4.1215   -4.6423    0.0000 H   0  0  0  0  0  0  0  0  0  0  0  0
    4.5200   -5.3326    0.0000 H   0  0  0  0  0  0  0  0  0  0  0  0
    7.0747   -3.8577    0.0000 H   0  0  0  0  0  0  0  0  0  0  0  0
    6.6762   -3.1674    0.0000 H   0  0  0  0  0  0  0  0  0  0  0  0
    4.5200   -3.1674    0.0000 H   0  0  0  0  0  0  0  0  0  0  0  0
    4.1215   -3.8577    0.0000 H   0  0  0  0  0  0  0  0  0  0  0  0
    6.4641   -7.1300    0.0000 H   0  0  0  0  0  0  0  0  0  0  0  0
    5.0611   -9.5600    0.0000 H   0  0  0  0  0  0  0  0  0  0  0  0
    7.8671   -7.9400    0.0000 H   0  0  0  0  0  0  0  0  0  0  0  0
    6.4641  -10.3700    0.0000 H   0  0  0  0  0  0  0  0  0  0  0  0
    4.4030    7.4400    0.0000 H   0  0  0  0  0  0  0  0  0  0  0  0
    7.0010   -2.0600    0.0000 H   0  0  0  0  0  0  0  0  0  0  0  0
    4.1951   -2.0600    0.0000 H   0  0  0  0  0  0  0  0  0  0  0  0
    2.3894    8.3577    0.0000 H   0  0  0  0  0  0  0  0  0  0  0  0
    2.7880    7.6674    0.0000 H   0  0  0  0  0  0  0  0  0  0  0  0
    4.9441    7.6674    0.0000 H   0  0  0  0  0  0  0  0  0  0  0  0
    5.3426    8.3577    0.0000 H   0  0  0  0  0  0  0  0  0  0  0  0
    3.2554    6.8577    0.0000 H   0  0  0  0  0  0  0  0  0  0  0  0
    3.6540    6.1674    0.0000 H   0  0  0  0  0  0  0  0  0  0  0  0
    2.7880    9.8326    0.0000 H   0  0  0  0  0  0  0  0  0  0  0  0
    2.3894    9.1423    0.0000 H   0  0  0  0  0  0  0  0  0  0  0  0
    5.3426    9.1423    0.0000 H   0  0  0  0  0  0  0  0  0  0  0  0
    4.9441    9.8326    0.0000 H   0  0  0  0  0  0  0  0  0  0  0  0
    4.1951   -0.4400    0.0000 H   0  0  0  0  0  0  0  0  0  0  0  0
    5.2690    6.5600    0.0000 H   0  0  0  0  0  0  0  0  0  0  0  0
    4.1951    0.9400    0.0000 H   0  0  0  0  0  0  0  0  0  0  0  0
    3.3291    5.0600    0.0000 H   0  0  0  0  0  0  0  0  0  0  0  0
    6.1350    3.4400    0.0000 H   0  0  0  0  0  0  0  0  0  0  0  0
    3.3291    3.4400    0.0000 H   0  0  0  0  0  0  0  0  0  0  0  0
    9.0622    0.3700    0.0000 H   0  0  0  0  0  0  0  0  0  0  0  0
    7.6592   -2.0600    0.0000 H   0  0  0  0  0  0  0  0  0  0  0  0
   11.0670    0.1441    0.0000 H   0  0  0  0  0  0  0  0  0  0  0  0
   11.0670   -2.6440    0.0000 H   0  0  0  0  0  0  0  0  0  0  0  0
   12.0780   -1.2500    0.0000 H   0  0  0  0  0  0  0  0  0  0  0  0
  1 39  1  0  0  0  0
  2  6  2  0  0  0  0
  2  7  2  0  0  0  0
  2 13  1  0  0  0  0
  2 52  1  0  0  0  0
  3 43  1  0  0  0  0
  3 44  1  0  0  0  0
  4 45  1  0  0  0  0
  4 55  1  0  0  0  0
  5 49  2  0  0  0  0
  8 14  1  0  0  0  0
  9 14  2  0  0  0  0
 10 23  1  0  0  0  0
 10 26  1  0  0  0  0
 10 27  1  0  0  0  0
 11 29  1  0  0  0  0
 11 30  1  0  0  0  0
 11 33  1  0  0  0  0
 12 42  1  0  0  0  0
 12 48  1  0  0  0  0
 12102  1  0  0  0  0
 13 49  1  0  0  0  0
 13103  1  0  0  0  0
 14 50  1  0  0  0  0
 15 57  1  0  0  0  0
 15 59  2  0  0  0  0
 16 59  1  0  0  0  0
 16 61  1  0  0  0  0
 16110  1  0  0  0  0
 17 18  1  0  0  0  0
 17 19  1  0  0  0  0
 17 24  1  0  0  0  0
 17 25  1  0  0  0  0
 18 20  1  0  0  0  0
 18 62  1  0  0  0  0
 18 63  1  0  0  0  0
 19 22  1  0  0  0  0
 19 64  1  0  0  0  0
 19 65  1  0  0  0  0
 20 21  1  0  0  0  0
 20 66  1  0  0  0  0
 20 67  1  0  0  0  0
 21 22  2  0  0  0  0
 21 23  1  0  0  0  0
 22 28  1  0  0  0  0
 23 68  1  0  0  0  0
 23 69  1  0  0  0  0
 24 70  1  0  0  0  0
 24 71  1  0  0  0  0
 24 72  1  0  0  0  0
 25 73  1  0  0  0  0
 25 74  1  0  0  0  0
 25 75  1  0  0  0  0
 26 29  1  0  0  0  0
 26 76  1  0  0  0  0
 26 77  1  0  0  0  0
 27 30  1  0  0  0  0
 27 78  1  0  0  0  0
 27 79  1  0  0  0  0
 28 31  2  0  0  0  0
 28 32  1  0  0  0  0
 29 80  1  0  0  0  0
 29 81  1  0  0  0  0
 30 82  1  0  0  0  0
 30 83  1  0  0  0  0
 31 34  1  0  0  0  0
 31 84  1  0  0  0  0
 32 35  2  0  0  0  0
 32 85  1  0  0  0  0
 33 37  2  0  0  0  0
 33 38  1  0  0  0  0
 34 39  2  0  0  0  0
 34 86  1  0  0  0  0
 35 39  1  0  0  0  0
 35 87  1  0  0  0  0
 36 40  1  0  0  0  0
 36 41  1  0  0  0  0
 36 42  1  0  0  0  0
 36 88  1  0  0  0  0
 37 45  1  0  0  0  0
 37 89  1  0  0  0  0
 38 46  2  0  0  0  0
 38 90  1  0  0  0  0
 40 43  1  0  0  0  0
 40 91  1  0  0  0  0
 40 92  1  0  0  0  0
 41 44  1  0  0  0  0
 41 93  1  0  0  0  0
 41 94  1  0  0  0  0
 42 95  1  0  0  0  0
 42 96  1  0  0  0  0
 43 97  1  0  0  0  0
 43 98  1  0  0  0  0
 44 99  1  0  0  0  0
 44100  1  0  0  0  0
 45 47  2  0  0  0  0
 46 47  1  0  0  0  0
 46101  1  0  0  0  0
 47 49  1  0  0  0  0
 48 50  2  0  0  0  0
 48 51  1  0  0  0  0
 50 53  1  0  0  0  0
 51 54  2  0  0  0  0
 51104  1  0  0  0  0
 52 53  2  0  0  0  0
 52 54  1  0  0  0  0
 53105  1  0  0  0  0
 54106  1  0  0  0  0
 55 56  1  0  0  0  0
 55 57  2  0  0  0  0
 56 58  2  0  0  0  0
 56107  1  0  0  0  0
 57108  1  0  0  0  0
 58 59  1  0  0  0  0
 58 60  1  0  0  0  0
 60 61  2  0  0  0  0
 60109  1  0  0  0  0
 61111  1  0  0  0  0
M  CHG  2   8  -1  14   1
M  END
> <PUBCHEM_COMPOUND_CID>
49846579

> <PUBCHEM_COMPOUND_CANONICALIZED>
1

> <PUBCHEM_CACTVS_COMPLEXITY>
1640

> <PUBCHEM_CACTVS_HBOND_ACCEPTOR>
11

> <PUBCHEM_CACTVS_HBOND_DONOR>
3

> <PUBCHEM_CACTVS_ROTATABLE_BOND>
12

> <PUBCHEM_CACTVS_SUBSKEYS>
AAADcfB/uABEAAAAAAAAAAAAAAAAAWAAAAA8eNECAAAAAFgB/AAAHgYUQAAADw7h2yY/99/Z1AKpAjd3d3TCiDm1Z6Ap2bk/ftqObvbFv5uXOWzu8JvY6ae42eOfDAQAAiAIACAYCAAEQBAAQAAAAAAAAA==

> <PUBCHEM_IUPAC_OPENEYE_NAME>
4-[4-[[2-(4-chlorophenyl)-4,4-dimethyl-cyclohexen-1-yl]methyl]piperazin-1-yl]-N-[3-nitro-4-(tetrahydropyran-4-ylmethylamino)phenyl]sulfonyl-2-(1H-pyrrolo[2,3-b]pyridin-5-yloxy)benzamide

> <PUBCHEM_IUPAC_CAS_NAME>
4-[4-[[2-(4-chlorophenyl)-4,4-dimethyl-1-cyclohexenyl]methyl]-1-piperazinyl]-N-[3-nitro-4-(4-oxanylmethylamino)phenyl]sulfonyl-2-(1H-pyrrolo[2,3-b]pyridin-5-yloxy)benzamide

> <PUBCHEM_IUPAC_NAME_MARKUP>
4-[4-[[2-(4-chlorophenyl)-4,4-dimethylcyclohexen-1-yl]methyl]piperazin-1-yl]-<I>N</I>-[3-nitro-4-(oxan-4-ylmethylamino)phenyl]sulfonyl-2-(1<I>H</I>-pyrrolo[2,3-b]pyridin-5-yloxy)benzamide

> <PUBCHEM_IUPAC_NAME>
4-[4-[[2-(4-chlorophenyl)-4,4-dimethylcyclohexen-1-yl]methyl]piperazin-1-yl]-N-[3-nitro-4-(oxan-4-ylmethylamino)phenyl]sulfonyl-2-(1H-pyrrolo[2,3-b]pyridin-5-yloxy)benzamide

> <PUBCHEM_IUPAC_SYSTEMATIC_NAME>
4-[4-[[2-(4-chlorophenyl)-4,4-dimethyl-cyclohexen-1-yl]methyl]piperazin-1-yl]-N-[3-nitro-4-(oxan-4-ylmethylamino)phenyl]sulfonyl-2-(1H-pyrrolo[2,3-b]pyridin-5-yloxy)benzamide

> <PUBCHEM_IUPAC_TRADITIONAL_NAME>
4-[4-[[2-(4-chlorophenyl)-4,4-dimethyl-cyclohexen-1-yl]methyl]piperazino]-N-[3-nitro-4-(tetrahydropyran-4-ylmethylamino)phenyl]sulfonyl-2-(1H-pyrrolo[2,3-b]pyridin-5-yloxy)benzamide

> <PUBCHEM_IUPAC_INCHI>
InChI=1S/C45H50ClN7O7S/c1-45(2)15-11-33(39(26-45)31-3-5-34(46)6-4-31)29-51-17-19-52(20-18-51)35-7-9-38(42(24-35)60-36-23-32-12-16-47-43(32)49-28-36)44(54)50-61(57,58)37-8-10-40(41(25-37)53(55)56)48-27-30-13-21-59-22-14-30/h3-10,12,16,23-25,28,30,48H,11,13-15,17-22,26-27,29H2,1-2H3,(H,47,49)(H,50,54)

> <PUBCHEM_IUPAC_INCHIKEY>
LQBVNQSMGBZMKD-UHFFFAOYSA-N

> <PUBCHEM_XLOGP3_AA>
8.2

> <PUBCHEM_EXACT_MASS>
867.318096

> <PUBCHEM_MOLECULAR_FORMULA>
C45H50ClN7O7S

> <PUBCHEM_MOLECULAR_WEIGHT>
868.4

> <PUBCHEM_OPENEYE_CAN_SMILES>
CC1(CCC(=C(C1)C2=CC=C(C=C2)Cl)CN3CCN(CC3)C4=CC(=C(C=C4)C(=O)NS(=O)(=O)C5=CC(=C(C=C5)NCC6CCOCC6)[N+](=O)[O-])OC7=CN=C8C(=C7)C=CN8)C

> <PUBCHEM_OPENEYE_ISO_SMILES>
CC1(CCC(=C(C1)C2=CC=C(C=C2)Cl)CN3CCN(CC3)C4=CC(=C(C=C4)C(=O)NS(=O)(=O)C5=CC(=C(C=C5)NCC6CCOCC6)[N+](=O)[O-])OC7=CN=C8C(=C7)C=CN8)C

> <PUBCHEM_CACTVS_TPSA>
183

> <PUBCHEM_MONOISOTOPIC_WEIGHT>
867.318096

> <PUBCHEM_TOTAL_CHARGE>
0

> <PUBCHEM_HEAVY_ATOM_COUNT>
61

> <PUBCHEM_ATOM_DEF_STEREO_COUNT>
0

> <PUBCHEM_ATOM_UDEF_STEREO_COUNT>
0

> <PUBCHEM_BOND_DEF_STEREO_COUNT>
0

> <PUBCHEM_BOND_UDEF_STEREO_COUNT>
0

> <PUBCHEM_ISOTOPIC_ATOM_COUNT>
0

> <PUBCHEM_COMPONENT_COUNT>
1

> <PUBCHEM_CACTVS_TAUTO_COUNT>
-1

> <PUBCHEM_COORDINATE_TYPE>
1
5
255

> <PUBCHEM_BONDANNOTATIONS>
15  57  8
15  59  8
16  59  8
16  61  8
28  31  8
28  32  8
31  34  8
32  35  8
33  37  8
33  38  8
34  39  8
35  39  8
37  45  8
38  46  8
45  47  8
46  47  8
48  50  8
48  51  8
50  53  8
51  54  8
52  53  8
52  54  8
55  56  8
55  57  8
56  58  8
58  59  8
58  60  8
60  61  8

$$$$
11433190
  -OEChem-02182015172D

 70 74  0     1  0  0  0  0  0999 V2000
    8.3152    4.6374    0.0000 Cl  0  0  0  0  0  0  0  0  0  0  0  0
    2.6130    4.6374    0.0000 Cl  0  0  0  0  0  0  0  0  0  0  0  0
    7.4321   -0.8368    0.0000 O   0  0  0  0  0  0  0  0  0  0  0  0
    3.7320   -1.1374    0.0000 O   0  0  0  0  0  0  0  0  0  0  0  0
   10.5187   -0.9292    0.0000 O   0  0  0  0  0  0  0  0  0  0  0  0
    5.4641   -4.1374    0.0000 O   0  0  0  0  0  0  0  0  0  0  0  0
    6.2731    0.4503    0.0000 N   0  0  0  0  0  0  0  0  0  0  0  0
    4.6551    0.4503    0.0000 N   0  0  0  0  0  0  0  0  0  0  0  0
    8.2023    0.3492    0.0000 N   0  0  0  0  0  0  0  0  0  0  0  0
   10.1586    0.7650    0.0000 N   0  0  0  0  0  0  0  0  0  0  0  0
    5.9641    1.4014    0.0000 C   0  0  1  0  0  0  0  0  0  0  0  0
    4.9641    1.4014    0.0000 C   0  0  2  0  0  0  0  0  0  0  0  0
    5.4641   -0.1375    0.0000 C   0  0  0  0  0  0  0  0  0  0  0  0
    6.5519    2.2104    0.0000 C   0  0  0  0  0  0  0  0  0  0  0  0
    4.3763    2.2104    0.0000 C   0  0  0  0  0  0  0  0  0  0  0  0
    7.2242    0.1413    0.0000 C   0  0  0  0  0  0  0  0  0  0  0  0
    5.4641   -1.1374    0.0000 C   0  0  0  0  0  0  0  0  0  0  0  0
    8.5113    1.3003    0.0000 C   0  0  0  0  0  0  0  0  0  0  0  0
    8.8714   -0.3939    0.0000 C   0  0  0  0  0  0  0  0  0  0  0  0
    6.1452    3.1239    0.0000 C   0  0  0  0  0  0  0  0  0  0  0  0
    7.5464    2.1059    0.0000 C   0  0  0  0  0  0  0  0  0  0  0  0
    9.4895    1.5082    0.0000 C   0  0  0  0  0  0  0  0  0  0  0  0
    3.3818    2.1059    0.0000 C   0  0  0  0  0  0  0  0  0  0  0  0
    4.7830    3.1239    0.0000 C   0  0  0  0  0  0  0  0  0  0  0  0
    4.5981   -1.6374    0.0000 C   0  0  0  0  0  0  0  0  0  0  0  0
    9.8496   -0.1860    0.0000 C   0  0  0  0  0  0  0  0  0  0  0  0
    6.3301   -1.6374    0.0000 C   0  0  0  0  0  0  0  0  0  0  0  0
    6.7329    3.9330    0.0000 C   0  0  0  0  0  0  0  0  0  0  0  0
    8.1342    2.9149    0.0000 C   0  0  0  0  0  0  0  0  0  0  0  0
    2.7940    2.9149    0.0000 C   0  0  0  0  0  0  0  0  0  0  0  0
    4.1953    3.9330    0.0000 C   0  0  0  0  0  0  0  0  0  0  0  0
    7.7275    3.8284    0.0000 C   0  0  0  0  0  0  0  0  0  0  0  0
    4.5981   -2.6374    0.0000 C   0  0  0  0  0  0  0  0  0  0  0  0
    6.3301   -2.6374    0.0000 C   0  0  0  0  0  0  0  0  0  0  0  0
    3.2008    3.8284    0.0000 C   0  0  0  0  0  0  0  0  0  0  0  0
    5.4641   -3.1374    0.0000 C   0  0  0  0  0  0  0  0  0  0  0  0
    2.8660   -1.6374    0.0000 C   0  0  0  0  0  0  0  0  0  0  0  0
    2.0000   -1.1374    0.0000 C   0  0  0  0  0  0  0  0  0  0  0  0
    2.8660   -2.6374    0.0000 C   0  0  0  0  0  0  0  0  0  0  0  0
    6.3301   -4.6374    0.0000 C   0  0  0  0  0  0  0  0  0  0  0  0
    6.5765    1.3044    0.0000 H   0  0  0  0  0  0  0  0  0  0  0  0
    5.2456    1.9538    0.0000 H   0  0  0  0  0  0  0  0  0  0  0  0
    8.4897    1.9199    0.0000 H   0  0  0  0  0  0  0  0  0  0  0  0
    7.8974    1.3866    0.0000 H   0  0  0  0  0  0  0  0  0  0  0  0
    8.3457   -0.7225    0.0000 H   0  0  0  0  0  0  0  0  0  0  0  0
    9.1037   -0.9688    0.0000 H   0  0  0  0  0  0  0  0  0  0  0  0
    5.5286    3.1888    0.0000 H   0  0  0  0  0  0  0  0  0  0  0  0
    7.7986    1.5395    0.0000 H   0  0  0  0  0  0  0  0  0  0  0  0
   10.0153    1.8367    0.0000 H   0  0  0  0  0  0  0  0  0  0  0  0
    9.2572    2.0830    0.0000 H   0  0  0  0  0  0  0  0  0  0  0  0
    3.1296    1.5395    0.0000 H   0  0  0  0  0  0  0  0  0  0  0  0
    5.3997    3.1888    0.0000 H   0  0  0  0  0  0  0  0  0  0  0  0
    6.8671   -1.3274    0.0000 H   0  0  0  0  0  0  0  0  0  0  0  0
   10.7651    0.8940    0.0000 H   0  0  0  0  0  0  0  0  0  0  0  0
    6.4808    4.4994    0.0000 H   0  0  0  0  0  0  0  0  0  0  0  0
    8.7508    2.8501    0.0000 H   0  0  0  0  0  0  0  0  0  0  0  0
    2.1774    2.8501    0.0000 H   0  0  0  0  0  0  0  0  0  0  0  0
    4.4474    4.4994    0.0000 H   0  0  0  0  0  0  0  0  0  0  0  0
    4.0611   -2.9474    0.0000 H   0  0  0  0  0  0  0  0  0  0  0  0
    6.8671   -2.9474    0.0000 H   0  0  0  0  0  0  0  0  0  0  0  0
    2.8660   -1.0174    0.0000 H   0  0  0  0  0  0  0  0  0  0  0  0
    2.3100   -0.6005    0.0000 H   0  0  0  0  0  0  0  0  0  0  0  0
    1.4631   -0.8275    0.0000 H   0  0  0  0  0  0  0  0  0  0  0  0
    1.6900   -1.6744    0.0000 H   0  0  0  0  0  0  0  0  0  0  0  0
    2.2460   -2.6374    0.0000 H   0  0  0  0  0  0  0  0  0  0  0  0
    2.8660   -3.2574    0.0000 H   0  0  0  0  0  0  0  0  0  0  0  0
    3.4860   -2.6374    0.0000 H   0  0  0  0  0  0  0  0  0  0  0  0
    6.0201   -5.1744    0.0000 H   0  0  0  0  0  0  0  0  0  0  0  0
    6.8671   -4.9474    0.0000 H   0  0  0  0  0  0  0  0  0  0  0  0
    6.6401   -4.1005    0.0000 H   0  0  0  0  0  0  0  0  0  0  0  0
  1 32  1  0  0  0  0
  2 35  1  0  0  0  0
  3 16  2  0  0  0  0
  4 25  1  0  0  0  0
  4 37  1  0  0  0  0
  5 26  2  0  0  0  0
  6 36  1  0  0  0  0
  6 40  1  0  0  0  0
  7 11  1  0  0  0  0
  7 13  1  0  0  0  0
  7 16  1  0  0  0  0
  8 12  1  0  0  0  0
  8 13  2  0  0  0  0
  9 16  1  0  0  0  0
  9 18  1  0  0  0  0
  9 19  1  0  0  0  0
 10 22  1  0  0  0  0
 10 26  1  0  0  0  0
 10 54  1  0  0  0  0
 11 12  1  0  0  0  0
 11 14  1  1  0  0  0
 11 41  1  0  0  0  0
 12 15  1  1  0  0  0
 12 42  1  0  0  0  0
 13 17  1  0  0  0  0
 14 20  2  0  0  0  0
 14 21  1  0  0  0  0
 15 23  2  0  0  0  0
 15 24  1  0  0  0  0
 17 25  2  0  0  0  0
 17 27  1  0  0  0  0
 18 22  1  0  0  0  0
 18 43  1  0  0  0  0
 18 44  1  0  0  0  0
 19 26  1  0  0  0  0
 19 45  1  0  0  0  0
 19 46  1  0  0  0  0
 20 28  1  0  0  0  0
 20 47  1  0  0  0  0
 21 29  2  0  0  0  0
 21 48  1  0  0  0  0
 22 49  1  0  0  0  0
 22 50  1  0  0  0  0
 23 30  1  0  0  0  0
 23 51  1  0  0  0  0
 24 31  2  0  0  0  0
 24 52  1  0  0  0  0
 25 33  1  0  0  0  0
 27 34  2  0  0  0  0
 27 53  1  0  0  0  0
 28 32  2  0  0  0  0
 28 55  1  0  0  0  0
 29 32  1  0  0  0  0
 29 56  1  0  0  0  0
 30 35  2  0  0  0  0
 30 57  1  0  0  0  0
 31 35  1  0  0  0  0
 31 58  1  0  0  0  0
 33 36  2  0  0  0  0
 33 59  1  0  0  0  0
 34 36  1  0  0  0  0
 34 60  1  0  0  0  0
 37 38  1  0  0  0  0
 37 39  1  0  0  0  0
 37 61  1  0  0  0  0
 38 62  1  0  0  0  0
 38 63  1  0  0  0  0
 38 64  1  0  0  0  0
 39 65  1  0  0  0  0
 39 66  1  0  0  0  0
 39 67  1  0  0  0  0
 40 68  1  0  0  0  0
 40 69  1  0  0  0  0
 40 70  1  0  0  0  0
M  END
> <PUBCHEM_COMPOUND_CID>
11433190

> <PUBCHEM_COMPOUND_CANONICALIZED>
1

> <PUBCHEM_CACTVS_COMPLEXITY>
919

> <PUBCHEM_CACTVS_HBOND_ACCEPTOR>
5

> <PUBCHEM_CACTVS_HBOND_DONOR>
1

> <PUBCHEM_CACTVS_ROTATABLE_BOND>
6

> <PUBCHEM_CACTVS_SUBSKEYS>
AAADceB7uAAGAAAAAAAAAAAAAAAAAQAAAAA8YMEAAAAAAAABUAAAHgIQAAAADD7hmCYzBoPABACoAiNyNACCCAEgJQAJiICuDpiMZ6KFuzuWOCjv1heIqAeQ8O4OJAAACAAIAABIAAAQABAAAAAAAAAAAA==

> <PUBCHEM_IUPAC_OPENEYE_NAME>
4-[(4S,5R)-4,5-bis(4-chlorophenyl)-2-(2-isopropoxy-4-methoxy-phenyl)-4,5-dihydroimidazole-1-carbonyl]piperazin-2-one

> <PUBCHEM_IUPAC_CAS_NAME>
4-[[(4S,5R)-4,5-bis(4-chlorophenyl)-2-(4-methoxy-2-propan-2-yloxyphenyl)-4,5-dihydroimidazol-1-yl]-oxomethyl]-2-piperazinone

> <PUBCHEM_IUPAC_NAME_MARKUP>
4-[(4<I>S</I>,5<I>R</I>)-4,5-bis(4-chlorophenyl)-2-(4-methoxy-2-propan-2-yloxyphenyl)-4,5-dihydroimidazole-1-carbonyl]piperazin-2-one

> <PUBCHEM_IUPAC_NAME>
4-[(4S,5R)-4,5-bis(4-chlorophenyl)-2-(4-methoxy-2-propan-2-yloxyphenyl)-4,5-dihydroimidazole-1-carbonyl]piperazin-2-one

> <PUBCHEM_IUPAC_SYSTEMATIC_NAME>
4-[[(4S,5R)-4,5-bis(4-chlorophenyl)-2-(4-methoxy-2-propan-2-yloxy-phenyl)-4,5-dihydroimidazol-1-yl]carbonyl]piperazin-2-one

> <PUBCHEM_IUPAC_TRADITIONAL_NAME>
4-[(4S,5R)-4,5-bis(4-chlorophenyl)-2-(2-isopropoxy-4-methoxy-phenyl)-2-imidazoline-1-carbonyl]piperazin-2-one

> <PUBCHEM_IUPAC_INCHI>
InChI=1S/C30H30Cl2N4O4/c1-18(2)40-25-16-23(39-3)12-13-24(25)29-34-27(19-4-8-21(31)9-5-19)28(20-6-10-22(32)11-7-20)36(29)30(38)35-15-14-33-26(37)17-35/h4-13,16,18,27-28H,14-15,17H2,1-3H3,(H,33,37)/t27-,28+/m0/s1

> <PUBCHEM_IUPAC_INCHIKEY>
BDUHCSBCVGXTJM-WUFINQPMSA-N

> <PUBCHEM_XLOGP3_AA>
5.2

> <PUBCHEM_EXACT_MASS>
580.164411

> <PUBCHEM_MOLECULAR_FORMULA>
C30H30Cl2N4O4

> <PUBCHEM_MOLECULAR_WEIGHT>
581.5

> <PUBCHEM_OPENEYE_CAN_SMILES>
CC(C)OC1=C(C=CC(=C1)OC)C2=NC(C(N2C(=O)N3CCNC(=O)C3)C4=CC=C(C=C4)Cl)C5=CC=C(C=C5)Cl

> <PUBCHEM_OPENEYE_ISO_SMILES>
CC(C)OC1=C(C=CC(=C1)OC)C2=N[C@H]([C@H](N2C(=O)N3CCNC(=O)C3)C4=CC=C(C=C4)Cl)C5=CC=C(C=C5)Cl

> <PUBCHEM_CACTVS_TPSA>
83.5

> <PUBCHEM_MONOISOTOPIC_WEIGHT>
580.164411

> <PUBCHEM_TOTAL_CHARGE>
0

> <PUBCHEM_HEAVY_ATOM_COUNT>
40

> <PUBCHEM_ATOM_DEF_STEREO_COUNT>
2

> <PUBCHEM_ATOM_UDEF_STEREO_COUNT>
0

> <PUBCHEM_BOND_DEF_STEREO_COUNT>
0

> <PUBCHEM_BOND_UDEF_STEREO_COUNT>
0

> <PUBCHEM_ISOTOPIC_ATOM_COUNT>
0

> <PUBCHEM_COMPONENT_COUNT>
1

> <PUBCHEM_CACTVS_TAUTO_COUNT>
-1

> <PUBCHEM_COORDINATE_TYPE>
1
5
255

> <PUBCHEM_BONDANNOTATIONS>
11  14  5
12  15  5
14  20  8
14  21  8
15  23  8
15  24  8
17  25  8
17  27  8
20  28  8
21  29  8
23  30  8
24  31  8
25  33  8
27  34  8
28  32  8
29  32  8
30  35  8
31  35  8
33  36  8
34  36  8

$$$$
11178236
  -OEChem-02182015172D

 47 49  0     0  0  0  0  0  0999 V2000
    4.1819    0.0000    0.0000 Br  0  5  0  0  0  0  0  0  0  0  0  0
    3.2018    4.2403    0.0000 O   0  0  0  0  0  0  0  0  0  0  0  0
    3.2018    8.2403    0.0000 O   0  0  0  0  0  0  0  0  0  0  0  0
    6.6138    3.3283    0.0000 O   0  0  0  0  0  0  0  0  0  0  0  0
    5.0140    5.4355    0.0000 N   0  0  0  0  0  0  0  0  0  0  0  0
    5.0140    7.0450    0.0000 N   0  3  0  0  0  0  0  0  0  0  0  0
    6.6138    9.1522    0.0000 N   0  0  0  0  0  0  0  0  0  0  0  0
    7.9495    7.6636    0.0000 N   0  0  0  0  0  0  0  0  0  0  0  0
    4.0678    5.7403    0.0000 C   0  0  0  0  0  0  0  0  0  0  0  0
    4.0678    6.7403    0.0000 C   0  0  0  0  0  0  0  0  0  0  0  0
    5.5976    6.2403    0.0000 C   0  0  0  0  0  0  0  0  0  0  0  0
    5.3247    4.4850    0.0000 C   0  0  0  0  0  0  0  0  0  0  0  0
    5.3247    7.9955    0.0000 C   0  0  0  0  0  0  0  0  0  0  0  0
    3.2018    5.2403    0.0000 C   0  0  0  0  0  0  0  0  0  0  0  0
    3.2018    7.2403    0.0000 C   0  0  0  0  0  0  0  0  0  0  0  0
    2.3358    5.7403    0.0000 C   0  0  0  0  0  0  0  0  0  0  0  0
    2.3358    6.7403    0.0000 C   0  0  0  0  0  0  0  0  0  0  0  0
    6.5976    6.2403    0.0000 C   0  0  0  0  0  0  0  0  0  0  0  0
    6.3032    4.2788    0.0000 C   0  0  0  0  0  0  0  0  0  0  0  0
    6.3032    8.2017    0.0000 C   0  0  0  0  0  0  0  0  0  0  0  0
    1.4418    5.2056    0.0000 C   0  0  0  0  0  0  0  0  0  0  0  0
    1.4418    7.2749    0.0000 C   0  0  0  0  0  0  0  0  0  0  0  0
    0.5357    5.7194    0.0000 C   0  0  0  0  0  0  0  0  0  0  0  0
    0.5357    6.7611    0.0000 C   0  0  0  0  0  0  0  0  0  0  0  0
    6.9710    7.4574    0.0000 C   0  0  0  0  0  0  0  0  0  0  0  0
    7.5924    3.1221    0.0000 C   0  0  0  0  0  0  0  0  0  0  0  0
    7.5924    9.3585    0.0000 C   0  0  0  0  0  0  0  0  0  0  0  0
    8.2602    8.6142    0.0000 C   0  0  0  0  0  0  0  0  0  0  0  0
    4.7109    4.3976    0.0000 H   0  0  0  0  0  0  0  0  0  0  0  0
    5.3041    3.8654    0.0000 H   0  0  0  0  0  0  0  0  0  0  0  0
    5.3041    8.6152    0.0000 H   0  0  0  0  0  0  0  0  0  0  0  0
    4.7109    8.0829    0.0000 H   0  0  0  0  0  0  0  0  0  0  0  0
    6.5976    5.6203    0.0000 H   0  0  0  0  0  0  0  0  0  0  0  0
    7.2176    6.2403    0.0000 H   0  0  0  0  0  0  0  0  0  0  0  0
    6.5976    6.8603    0.0000 H   0  0  0  0  0  0  0  0  0  0  0  0
    6.9170    4.3661    0.0000 H   0  0  0  0  0  0  0  0  0  0  0  0
    6.3238    4.8984    0.0000 H   0  0  0  0  0  0  0  0  0  0  0  0
    1.4490    4.5856    0.0000 H   0  0  0  0  0  0  0  0  0  0  0  0
    1.4490    7.8949    0.0000 H   0  0  0  0  0  0  0  0  0  0  0  0
    0.0000    5.4074    0.0000 H   0  0  0  0  0  0  0  0  0  0  0  0
    0.0000    7.0731    0.0000 H   0  0  0  0  0  0  0  0  0  0  0  0
    6.7784    6.8681    0.0000 H   0  0  0  0  0  0  0  0  0  0  0  0
    7.4645    2.5154    0.0000 H   0  0  0  0  0  0  0  0  0  0  0  0
    8.1990    2.9942    0.0000 H   0  0  0  0  0  0  0  0  0  0  0  0
    7.7202    3.7287    0.0000 H   0  0  0  0  0  0  0  0  0  0  0  0
    7.7850    9.9478    0.0000 H   0  0  0  0  0  0  0  0  0  0  0  0
    8.8669    8.7420    0.0000 H   0  0  0  0  0  0  0  0  0  0  0  0
  2 14  2  0  0  0  0
  3 15  2  0  0  0  0
  4 19  1  0  0  0  0
  4 26  1  0  0  0  0
  5  9  1  0  0  0  0
  5 11  1  0  0  0  0
  5 12  1  0  0  0  0
  6 10  1  0  0  0  0
  6 11  2  0  0  0  0
  6 13  1  0  0  0  0
  7 20  2  0  0  0  0
  7 27  1  0  0  0  0
  8 25  2  0  0  0  0
  8 28  1  0  0  0  0
  9 10  2  0  0  0  0
  9 14  1  0  0  0  0
 10 15  1  0  0  0  0
 11 18  1  0  0  0  0
 12 19  1  0  0  0  0
 12 29  1  0  0  0  0
 12 30  1  0  0  0  0
 13 20  1  0  0  0  0
 13 31  1  0  0  0  0
 13 32  1  0  0  0  0
 14 16  1  0  0  0  0
 15 17  1  0  0  0  0
 16 17  1  0  0  0  0
 16 21  2  0  0  0  0
 17 22  2  0  0  0  0
 18 33  1  0  0  0  0
 18 34  1  0  0  0  0
 18 35  1  0  0  0  0
 19 36  1  0  0  0  0
 19 37  1  0  0  0  0
 20 25  1  0  0  0  0
 21 23  1  0  0  0  0
 21 38  1  0  0  0  0
 22 24  1  0  0  0  0
 22 39  1  0  0  0  0
 23 24  2  0  0  0  0
 23 40  1  0  0  0  0
 24 41  1  0  0  0  0
 25 42  1  0  0  0  0
 26 43  1  0  0  0  0
 26 44  1  0  0  0  0
 26 45  1  0  0  0  0
 27 28  2  0  0  0  0
 27 46  1  0  0  0  0
 28 47  1  0  0  0  0
M  CHG  2   1  -1   6   1
M  END
> <PUBCHEM_COMPOUND_CID>
11178236

> <PUBCHEM_COMPOUND_CANONICALIZED>
1

> <PUBCHEM_CACTVS_COMPLEXITY>
571

> <PUBCHEM_CACTVS_HBOND_ACCEPTOR>
6

> <PUBCHEM_CACTVS_HBOND_DONOR>
0

> <PUBCHEM_CACTVS_ROTATABLE_BOND>
5

> <PUBCHEM_CACTVS_SUBSKEYS>
AAADceB7sAAAEAAAAAAAAAAAAAAAAWAAAAA8YIAAAAAAAFjB8AAAHgAAAAAADAzhnwY/kJcMFACoA7Z3ZACCgC03EqAJ2AG4dMiKaHrA3TGVIYgogALYyecZiYCegAAAAAAQAAAQAACAACAAQAAAAAAAAA==

> <PUBCHEM_IUPAC_OPENEYE_NAME>
1-(2-methoxyethyl)-2-methyl-3-(pyrazin-2-ylmethyl)benzo[f]benzimidazol-3-ium-4,9-dione;bromide

> <PUBCHEM_IUPAC_CAS_NAME>
1-(2-methoxyethyl)-2-methyl-3-(2-pyrazinylmethyl)benzo[f]benzimidazol-3-ium-4,9-dione;bromide

> <PUBCHEM_IUPAC_NAME_MARKUP>
1-(2-methoxyethyl)-2-methyl-3-(pyrazin-2-ylmethyl)benzo[f]benzimidazol-3-ium-4,9-dione;bromide

> <PUBCHEM_IUPAC_NAME>
1-(2-methoxyethyl)-2-methyl-3-(pyrazin-2-ylmethyl)benzo[f]benzimidazol-3-ium-4,9-dione;bromide

> <PUBCHEM_IUPAC_SYSTEMATIC_NAME>
1-(2-methoxyethyl)-2-methyl-3-(pyrazin-2-ylmethyl)benzo[f]benzimidazol-3-ium-4,9-dione;bromide

> <PUBCHEM_IUPAC_TRADITIONAL_NAME>
1-(2-methoxyethyl)-2-methyl-3-(pyrazin-2-ylmethyl)benzo[f]benzimidazol-3-ium-4,9-quinone;bromide

> <PUBCHEM_IUPAC_INCHI>
InChI=1S/C20H19N4O3.BrH/c1-13-23(9-10-27-2)17-18(24(13)12-14-11-21-7-8-22-14)20(26)16-6-4-3-5-15(16)19(17)25;/h3-8,11H,9-10,12H2,1-2H3;1H/q+1;/p-1

> <PUBCHEM_IUPAC_INCHIKEY>
QBIYUDDJPRGKNJ-UHFFFAOYSA-M

> <PUBCHEM_EXACT_MASS>
442.06405

> <PUBCHEM_MOLECULAR_FORMULA>
C20H19BrN4O3

> <PUBCHEM_MOLECULAR_WEIGHT>
443.3

> <PUBCHEM_OPENEYE_CAN_SMILES>
CC1=[N+](C2=C(N1CCOC)C(=O)C3=CC=CC=C3C2=O)CC4=NC=CN=C4.[Br-]

> <PUBCHEM_OPENEYE_ISO_SMILES>
CC1=[N+](C2=C(N1CCOC)C(=O)C3=CC=CC=C3C2=O)CC4=NC=CN=C4.[Br-]

> <PUBCHEM_CACTVS_TPSA>
78

> <PUBCHEM_MONOISOTOPIC_WEIGHT>
442.06405

> <PUBCHEM_TOTAL_CHARGE>
0

> <PUBCHEM_HEAVY_ATOM_COUNT>
28

> <PUBCHEM_ATOM_DEF_STEREO_COUNT>
0

> <PUBCHEM_ATOM_UDEF_STEREO_COUNT>
0

> <PUBCHEM_BOND_DEF_STEREO_COUNT>
0

> <PUBCHEM_BOND_UDEF_STEREO_COUNT>
0

> <PUBCHEM_ISOTOPIC_ATOM_COUNT>
0

> <PUBCHEM_COMPONENT_COUNT>
2

> <PUBCHEM_CACTVS_TAUTO_COUNT>
-1

> <PUBCHEM_COORDINATE_TYPE>
1
5
255

> <PUBCHEM_BONDANNOTATIONS>
16  17  8
16  21  8
17  22  8
20  25  8
21  23  8
22  24  8
23  24  8
27  28  8
5  11  8
5  9  8
6  10  8
6  11  8
7  20  8
7  27  8
8  25  8
8  28  8
9  10  8

$$$$
16241412
  -OEChem-02182015172D

 45 47  0     0  0  0  0  0  0999 V2000
    4.2601    2.9912    0.0000 S   0  0  0  0  0  0  0  0  0  0  0  0
    2.8940   -1.0476    0.0000 O   0  0  0  0  0  0  0  0  0  0  0  0
    2.8940   -3.0476    0.0000 O   0  0  0  0  0  0  0  0  0  0  0  0
    4.6261   -4.0476    0.0000 O   0  0  0  0  0  0  0  0  0  0  0  0
    5.5202    1.7312    0.0000 N   0  0  0  0  0  0  0  0  0  0  0  0
    3.7601    1.4524    0.0000 N   0  0  0  0  0  0  0  0  0  0  0  0
    3.7601    0.4524    0.0000 N   0  0  0  0  0  0  0  0  0  0  0  0
    6.2633    2.4003    0.0000 C   0  0  0  0  0  0  0  0  0  0  0  0
    6.0554    3.3785    0.0000 C   0  0  0  0  0  0  0  0  0  0  0  0
    7.2144    2.0913    0.0000 C   0  0  0  0  0  0  0  0  0  0  0  0
    6.7985    4.0476    0.0000 C   0  0  0  0  0  0  0  0  0  0  0  0
    7.9575    2.7604    0.0000 C   0  0  0  0  0  0  0  0  0  0  0  0
    7.7496    3.7386    0.0000 C   0  0  0  0  0  0  0  0  0  0  0  0
    4.5691    2.0402    0.0000 C   0  0  0  0  0  0  0  0  0  0  0  0
    2.9511    2.0402    0.0000 C   0  0  0  0  0  0  0  0  0  0  0  0
    3.2601    2.9912    0.0000 C   0  0  0  0  0  0  0  0  0  0  0  0
    2.0000    1.7312    0.0000 C   0  0  0  0  0  0  0  0  0  0  0  0
    4.6261   -0.0476    0.0000 C   0  0  0  0  0  0  0  0  0  0  0  0
    4.6261   -1.0476    0.0000 C   0  0  0  0  0  0  0  0  0  0  0  0
    3.7601   -1.5476    0.0000 C   0  0  0  0  0  0  0  0  0  0  0  0
    5.4921   -1.5476    0.0000 C   0  0  0  0  0  0  0  0  0  0  0  0
    3.7601   -2.5476    0.0000 C   0  0  0  0  0  0  0  0  0  0  0  0
    5.4921   -2.5476    0.0000 C   0  0  0  0  0  0  0  0  0  0  0  0
    4.6261   -3.0476    0.0000 C   0  0  0  0  0  0  0  0  0  0  0  0
    6.3922    1.7939    0.0000 H   0  0  0  0  0  0  0  0  0  0  0  0
    5.7268    3.9042    0.0000 H   0  0  0  0  0  0  0  0  0  0  0  0
    5.4805    3.1462    0.0000 H   0  0  0  0  0  0  0  0  0  0  0  0
    6.9233    1.5439    0.0000 H   0  0  0  0  0  0  0  0  0  0  0  0
    7.7029    1.7096    0.0000 H   0  0  0  0  0  0  0  0  0  0  0  0
    7.0896    4.5950    0.0000 H   0  0  0  0  0  0  0  0  0  0  0  0
    6.3100    4.4293    0.0000 H   0  0  0  0  0  0  0  0  0  0  0  0
    8.2860    2.2346    0.0000 H   0  0  0  0  0  0  0  0  0  0  0  0
    8.5323    2.9927    0.0000 H   0  0  0  0  0  0  0  0  0  0  0  0
    8.3692    3.7602    0.0000 H   0  0  0  0  0  0  0  0  0  0  0  0
    7.8359    4.3525    0.0000 H   0  0  0  0  0  0  0  0  0  0  0  0
    2.8956    3.4928    0.0000 H   0  0  0  0  0  0  0  0  0  0  0  0
    3.2231    0.1424    0.0000 H   0  0  0  0  0  0  0  0  0  0  0  0
    1.8084    2.3208    0.0000 H   0  0  0  0  0  0  0  0  0  0  0  0
    1.4103    1.5396    0.0000 H   0  0  0  0  0  0  0  0  0  0  0  0
    2.1916    1.1415    0.0000 H   0  0  0  0  0  0  0  0  0  0  0  0
    5.1630    0.2624    0.0000 H   0  0  0  0  0  0  0  0  0  0  0  0
    6.0291   -1.2376    0.0000 H   0  0  0  0  0  0  0  0  0  0  0  0
    6.0291   -2.8576    0.0000 H   0  0  0  0  0  0  0  0  0  0  0  0
    2.3571   -1.3576    0.0000 H   0  0  0  0  0  0  0  0  0  0  0  0
    2.8940   -3.6676    0.0000 H   0  0  0  0  0  0  0  0  0  0  0  0
  1 14  1  0  0  0  0
  1 16  1  0  0  0  0
  2 20  1  0  0  0  0
  2 44  1  0  0  0  0
  3 22  1  0  0  0  0
  3 45  1  0  0  0  0
  4 24  2  0  0  0  0
  5  8  1  0  0  0  0
  5 14  2  0  0  0  0
  6  7  1  0  0  0  0
  6 14  1  0  0  0  0
  6 15  1  0  0  0  0
  7 18  1  0  0  0  0
  7 37  1  0  0  0  0
  8  9  1  0  0  0  0
  8 10  1  0  0  0  0
  8 25  1  0  0  0  0
  9 11  1  0  0  0  0
  9 26  1  0  0  0  0
  9 27  1  0  0  0  0
 10 12  1  0  0  0  0
 10 28  1  0  0  0  0
 10 29  1  0  0  0  0
 11 13  1  0  0  0  0
 11 30  1  0  0  0  0
 11 31  1  0  0  0  0
 12 13  1  0  0  0  0
 12 32  1  0  0  0  0
 12 33  1  0  0  0  0
 13 34  1  0  0  0  0
 13 35  1  0  0  0  0
 15 16  2  0  0  0  0
 15 17  1  0  0  0  0
 16 36  1  0  0  0  0
 17 38  1  0  0  0  0
 17 39  1  0  0  0  0
 17 40  1  0  0  0  0
 18 19  2  0  0  0  0
 18 41  1  0  0  0  0
 19 20  1  0  0  0  0
 19 21  1  0  0  0  0
 20 22  2  0  0  0  0
 21 23  2  0  0  0  0
 21 42  1  0  0  0  0
 22 24  1  0  0  0  0
 23 24  1  0  0  0  0
 23 43  1  0  0  0  0
M  END
> <PUBCHEM_COMPOUND_CID>
16241412

> <PUBCHEM_COMPOUND_CANONICALIZED>
1

> <PUBCHEM_CACTVS_COMPLEXITY>
685

> <PUBCHEM_CACTVS_HBOND_ACCEPTOR>
6

> <PUBCHEM_CACTVS_HBOND_DONOR>
3

> <PUBCHEM_CACTVS_ROTATABLE_BOND>
3

> <PUBCHEM_CACTVS_SUBSKEYS>
AAADceB7MABAAAAAAAAAAAAAAAAAAQAAAAAwQAAAAAAAAAAAAAAAHgQYCAAADCzFwASDAAJiAgioAqRWZAIAEAFgIgAZKIBAAEgIBAIAiQAAQAAAQAAIkYMQAAAAAAAAAAAAAAAAAAAAAAAAAAAAAAAAAA==

> <PUBCHEM_IUPAC_OPENEYE_NAME>
(4Z)-4-[[(2-cyclohexylimino-4-methyl-thiazol-3-yl)amino]methylene]-2,3-dihydroxy-cyclohexa-2,5-dien-1-one

> <PUBCHEM_IUPAC_CAS_NAME>
(4Z)-4-[[(2-cyclohexylimino-4-methyl-3-thiazolyl)amino]methylidene]-2,3-dihydroxy-1-cyclohexa-2,5-dienone

> <PUBCHEM_IUPAC_NAME_MARKUP>
(4<I>Z</I>)-4-[[(2-cyclohexylimino-4-methyl-1,3-thiazol-3-yl)amino]methylidene]-2,3-dihydroxycyclohexa-2,5-dien-1-one

> <PUBCHEM_IUPAC_NAME>
(4Z)-4-[[(2-cyclohexylimino-4-methyl-1,3-thiazol-3-yl)amino]methylidene]-2,3-dihydroxycyclohexa-2,5-dien-1-one

> <PUBCHEM_IUPAC_SYSTEMATIC_NAME>
(4Z)-4-[[(2-cyclohexylimino-4-methyl-1,3-thiazol-3-yl)amino]methylidene]-2,3-bis(oxidanyl)cyclohexa-2,5-dien-1-one

> <PUBCHEM_IUPAC_TRADITIONAL_NAME>
(4Z)-4-[[(2-cyclohexylimino-4-methyl-4-thiazolin-3-yl)amino]methylene]-2,3-dihydroxy-cyclohexa-2,5-dien-1-one

> <PUBCHEM_IUPAC_INCHI>
InChI=1S/C17H21N3O3S/c1-11-10-24-17(19-13-5-3-2-4-6-13)20(11)18-9-12-7-8-14(21)16(23)15(12)22/h7-10,13,18,22-23H,2-6H2,1H3/b12-9-,19-17?

> <PUBCHEM_IUPAC_INCHIKEY>
UXHKLJMFCANPNV-NZEVRPOUSA-N

> <PUBCHEM_XLOGP3_AA>
2.7

> <PUBCHEM_EXACT_MASS>
347.130363

> <PUBCHEM_MOLECULAR_FORMULA>
C17H21N3O3S

> <PUBCHEM_MOLECULAR_WEIGHT>
347.4

> <PUBCHEM_OPENEYE_CAN_SMILES>
CC1=CSC(=NC2CCCCC2)N1NC=C3C=CC(=O)C(=C3O)O

> <PUBCHEM_OPENEYE_ISO_SMILES>
CC1=CSC(=NC2CCCCC2)N1N/C=C\3/C=CC(=O)C(=C3O)O

> <PUBCHEM_CACTVS_TPSA>
111

> <PUBCHEM_MONOISOTOPIC_WEIGHT>
347.130363

> <PUBCHEM_TOTAL_CHARGE>
0

> <PUBCHEM_HEAVY_ATOM_COUNT>
24

> <PUBCHEM_ATOM_DEF_STEREO_COUNT>
0

> <PUBCHEM_ATOM_UDEF_STEREO_COUNT>
0

> <PUBCHEM_BOND_DEF_STEREO_COUNT>
1

> <PUBCHEM_BOND_UDEF_STEREO_COUNT>
0

> <PUBCHEM_ISOTOPIC_ATOM_COUNT>
0

> <PUBCHEM_COMPONENT_COUNT>
1

> <PUBCHEM_CACTVS_TAUTO_COUNT>
-1

> <PUBCHEM_COORDINATE_TYPE>
1
5
255

> <PUBCHEM_BONDANNOTATIONS>
1  14  8
1  16  8
15  16  8
6  14  8
6  15  8

$$$$
51042438
  -OEChem-02182015172D

 44 46  0     1  0  0  0  0  0999 V2000
    5.7634    3.9045    0.0000 Cl  0  0  0  0  0  0  0  0  0  0  0  0
    2.0000    3.0955    0.0000 Cl  0  0  0  0  0  0  0  0  0  0  0  0
    2.9435   -4.4434    0.0000 F   0  0  0  0  0  0  0  0  0  0  0  0
    4.6756   -5.4434    0.0000 F   0  0  0  0  0  0  0  0  0  0  0  0
    5.4846    2.1444    0.0000 O   0  0  0  0  0  0  0  0  0  0  0  0
    3.8096    0.0566    0.0000 O   0  0  0  0  0  0  0  0  0  0  0  0
    5.5416    0.0566    0.0000 N   0  0  0  0  0  0  0  0  0  0  0  0
    7.2736   -0.9434    0.0000 N   0  0  0  0  0  0  0  0  0  0  0  0
    3.8968    4.8556    0.0000 N   0  0  0  0  0  0  0  0  0  0  0  0
    3.0878    5.4434    0.0000 N   0  0  0  0  0  0  0  0  0  0  0  0
    5.5416   -0.9434    0.0000 C   0  0  1  0  0  0  0  0  0  0  0  0
    4.6756   -1.4434    0.0000 C   0  0  0  0  0  0  0  0  0  0  0  0
    6.4076   -1.4434    0.0000 C   0  0  0  0  0  0  0  0  0  0  0  0
    4.6756   -2.4434    0.0000 C   0  0  0  0  0  0  0  0  0  0  0  0
    4.6756    0.5566    0.0000 C   0  0  0  0  0  0  0  0  0  0  0  0
    4.6756    1.5566    0.0000 C   0  0  0  0  0  0  0  0  0  0  0  0
    3.8096   -2.9434    0.0000 C   0  0  0  0  0  0  0  0  0  0  0  0
    5.5416   -2.9434    0.0000 C   0  0  0  0  0  0  0  0  0  0  0  0
    4.1756    3.0955    0.0000 C   0  0  0  0  0  0  0  0  0  0  0  0
    3.8666    2.1444    0.0000 C   0  0  0  0  0  0  0  0  0  0  0  0
    3.5878    3.9045    0.0000 C   0  0  0  0  0  0  0  0  0  0  0  0
    5.1756    3.0955    0.0000 C   0  0  0  0  0  0  0  0  0  0  0  0
    3.8096   -3.9434    0.0000 C   0  0  0  0  0  0  0  0  0  0  0  0
    5.5416   -3.9434    0.0000 C   0  0  0  0  0  0  0  0  0  0  0  0
    2.5878    3.9045    0.0000 C   0  0  0  0  0  0  0  0  0  0  0  0
    4.6756   -4.4434    0.0000 C   0  0  0  0  0  0  0  0  0  0  0  0
    4.8479    5.1646    0.0000 C   0  0  0  0  0  0  0  0  0  0  0  0
    2.2788    4.8556    0.0000 C   0  0  0  0  0  0  0  0  0  0  0  0
    6.0785   -0.6334    0.0000 H   0  0  0  0  0  0  0  0  0  0  0  0
    4.4635   -0.8607    0.0000 H   0  0  0  0  0  0  0  0  0  0  0  0
    4.0650   -1.5510    0.0000 H   0  0  0  0  0  0  0  0  0  0  0  0
    6.0091   -1.9183    0.0000 H   0  0  0  0  0  0  0  0  0  0  0  0
    6.8062   -1.9183    0.0000 H   0  0  0  0  0  0  0  0  0  0  0  0
    6.0785    0.3666    0.0000 H   0  0  0  0  0  0  0  0  0  0  0  0
    3.2726   -2.6334    0.0000 H   0  0  0  0  0  0  0  0  0  0  0  0
    6.0785   -2.6334    0.0000 H   0  0  0  0  0  0  0  0  0  0  0  0
    3.2769    1.9528    0.0000 H   0  0  0  0  0  0  0  0  0  0  0  0
    7.8106   -1.2534    0.0000 H   0  0  0  0  0  0  0  0  0  0  0  0
    7.2736   -0.3234    0.0000 H   0  0  0  0  0  0  0  0  0  0  0  0
    6.0785   -4.2534    0.0000 H   0  0  0  0  0  0  0  0  0  0  0  0
    5.0395    4.5749    0.0000 H   0  0  0  0  0  0  0  0  0  0  0  0
    5.4375    5.3562    0.0000 H   0  0  0  0  0  0  0  0  0  0  0  0
    4.6563    5.7542    0.0000 H   0  0  0  0  0  0  0  0  0  0  0  0
    1.6891    5.0472    0.0000 H   0  0  0  0  0  0  0  0  0  0  0  0
  1 22  1  0  0  0  0
  2 25  1  0  0  0  0
  3 23  1  0  0  0  0
  4 26  1  0  0  0  0
  5 16  1  0  0  0  0
  5 22  1  0  0  0  0
  6 15  2  0  0  0  0
 11  7  1  6  0  0  0
  7 15  1  0  0  0  0
  7 34  1  0  0  0  0
  8 13  1  0  0  0  0
  8 38  1  0  0  0  0
  8 39  1  0  0  0  0
  9 10  1  0  0  0  0
  9 21  1  0  0  0  0
  9 27  1  0  0  0  0
 10 28  2  0  0  0  0
 11 12  1  0  0  0  0
 11 13  1  0  0  0  0
 11 29  1  0  0  0  0
 12 14  1  0  0  0  0
 12 30  1  0  0  0  0
 12 31  1  0  0  0  0
 13 32  1  0  0  0  0
 13 33  1  0  0  0  0
 14 17  2  0  0  0  0
 14 18  1  0  0  0  0
 15 16  1  0  0  0  0
 16 20  2  0  0  0  0
 17 23  1  0  0  0  0
 17 35  1  0  0  0  0
 18 24  2  0  0  0  0
 18 36  1  0  0  0  0
 19 20  1  0  0  0  0
 19 21  1  0  0  0  0
 19 22  2  0  0  0  0
 20 37  1  0  0  0  0
 21 25  2  0  0  0  0
 23 26  2  0  0  0  0
 24 26  1  0  0  0  0
 24 40  1  0  0  0  0
 25 28  1  0  0  0  0
 27 41  1  0  0  0  0
 27 42  1  0  0  0  0
 27 43  1  0  0  0  0
 28 44  1  0  0  0  0
M  END
> <PUBCHEM_COMPOUND_CID>
51042438

> <PUBCHEM_COMPOUND_CANONICALIZED>
1

> <PUBCHEM_CACTVS_COMPLEXITY>
550

> <PUBCHEM_CACTVS_HBOND_ACCEPTOR>
6

> <PUBCHEM_CACTVS_HBOND_DONOR>
2

> <PUBCHEM_CACTVS_ROTATABLE_BOND>
6

> <PUBCHEM_CACTVS_SUBSKEYS>
AAADceB7sYAGAAAAAAAAAAAAAAAAAWJAAAAwAAAAAAAAAAAB8AAAHwIYAAAADC7Bniw+hJLIBECqA/V/VAKSDAAlpQAY2KHuTtgOZrrF9//XvSjm3hHY6Ye834KeAAAAAAAAAAAAAAAAAAAAAAAAAAAAAA==

> <PUBCHEM_IUPAC_OPENEYE_NAME>
N-[(1S)-1-(aminomethyl)-2-(3,4-difluorophenyl)ethyl]-5-chloro-4-(4-chloro-2-methyl-pyrazol-3-yl)furan-2-carboxamide

> <PUBCHEM_IUPAC_CAS_NAME>
N-[(2S)-1-amino-3-(3,4-difluorophenyl)propan-2-yl]-5-chloro-4-(4-chloro-2-methyl-3-pyrazolyl)-2-furancarboxamide

> <PUBCHEM_IUPAC_NAME_MARKUP>
<I>N</I>-[(2<I>S</I>)-1-amino-3-(3,4-difluorophenyl)propan-2-yl]-5-chloro-4-(4-chloro-2-methylpyrazol-3-yl)furan-2-carboxamide

> <PUBCHEM_IUPAC_NAME>
N-[(2S)-1-amino-3-(3,4-difluorophenyl)propan-2-yl]-5-chloro-4-(4-chloro-2-methylpyrazol-3-yl)furan-2-carboxamide

> <PUBCHEM_IUPAC_SYSTEMATIC_NAME>
N-[(2S)-1-azanyl-3-[3,4-bis(fluoranyl)phenyl]propan-2-yl]-5-chloranyl-4-(4-chloranyl-2-methyl-pyrazol-3-yl)furan-2-carboxamide

> <PUBCHEM_IUPAC_TRADITIONAL_NAME>
N-[(1S)-1-(aminomethyl)-2-(3,4-difluorophenyl)ethyl]-5-chloro-4-(4-chloro-2-methyl-pyrazol-3-yl)-2-furamide

> <PUBCHEM_IUPAC_INCHI>
InChI=1S/C18H16Cl2F2N4O2/c1-26-16(12(19)8-24-26)11-6-15(28-17(11)20)18(27)25-10(7-23)4-9-2-3-13(21)14(22)5-9/h2-3,5-6,8,10H,4,7,23H2,1H3,(H,25,27)/t10-/m0/s1

> <PUBCHEM_IUPAC_INCHIKEY>
AXTAPYRUEKNRBA-JTQLQIEISA-N

> <PUBCHEM_XLOGP3_AA>
3.4

> <PUBCHEM_EXACT_MASS>
428.061838

> <PUBCHEM_MOLECULAR_FORMULA>
C18H16Cl2F2N4O2

> <PUBCHEM_MOLECULAR_WEIGHT>
429.2

> <PUBCHEM_OPENEYE_CAN_SMILES>
CN1C(=C(C=N1)Cl)C2=C(OC(=C2)C(=O)NC(CC3=CC(=C(C=C3)F)F)CN)Cl

> <PUBCHEM_OPENEYE_ISO_SMILES>
CN1C(=C(C=N1)Cl)C2=C(OC(=C2)C(=O)N[C@@H](CC3=CC(=C(C=C3)F)F)CN)Cl

> <PUBCHEM_CACTVS_TPSA>
86.1

> <PUBCHEM_MONOISOTOPIC_WEIGHT>
428.061838

> <PUBCHEM_TOTAL_CHARGE>
0

> <PUBCHEM_HEAVY_ATOM_COUNT>
28

> <PUBCHEM_ATOM_DEF_STEREO_COUNT>
1

> <PUBCHEM_ATOM_UDEF_STEREO_COUNT>
0

> <PUBCHEM_BOND_DEF_STEREO_COUNT>
0

> <PUBCHEM_BOND_UDEF_STEREO_COUNT>
0

> <PUBCHEM_ISOTOPIC_ATOM_COUNT>
0

> <PUBCHEM_COMPONENT_COUNT>
1

> <PUBCHEM_CACTVS_TAUTO_COUNT>
-1

> <PUBCHEM_COORDINATE_TYPE>
1
5
255

> <PUBCHEM_BONDANNOTATIONS>
10  28  8
14  17  8
14  18  8
16  20  8
17  23  8
18  24  8
19  20  8
19  22  8
21  25  8
23  26  8
24  26  8
25  28  8
5  16  8
5  22  8
11  7  6
9  10  8
9  21  8

$$$$
118704762
  -OEChem-02182015172D

 45 48  0     0  0  0  0  0  0999 V2000
    2.0000   -1.8450    0.0000 F   0  0  0  0  0  0  0  0  0  0  0  0
    5.4641   -1.8450    0.0000 F   0  0  0  0  0  0  0  0  0  0  0  0
    9.7942   -1.3450    0.0000 O   0  0  0  0  0  0  0  0  0  0  0  0
    3.7320   -2.8450    0.0000 O   0  0  0  0  0  0  0  0  0  0  0  0
    8.0622   -0.3450    0.0000 N   0  0  0  0  0  0  0  0  0  0  0  0
    2.8660    2.6550    0.0000 N   0  0  0  0  0  0  0  0  0  0  0  0
    8.9282    0.1550    0.0000 C   0  0  0  0  0  0  0  0  0  0  0  0
    8.0622   -1.3450    0.0000 C   0  0  0  0  0  0  0  0  0  0  0  0
    7.1962    0.1550    0.0000 C   0  0  0  0  0  0  0  0  0  0  0  0
    9.7942   -0.3450    0.0000 C   0  0  0  0  0  0  0  0  0  0  0  0
    8.9282   -1.8450    0.0000 C   0  0  0  0  0  0  0  0  0  0  0  0
    7.1962    1.1550    0.0000 C   0  0  0  0  0  0  0  0  0  0  0  0
    6.3301   -0.3450    0.0000 C   0  0  0  0  0  0  0  0  0  0  0  0
    5.4641    1.1550    0.0000 C   0  0  0  0  0  0  0  0  0  0  0  0
    6.3301    1.6550    0.0000 C   0  0  0  0  0  0  0  0  0  0  0  0
    5.4641    0.1550    0.0000 C   0  0  0  0  0  0  0  0  0  0  0  0
    4.5981    1.6550    0.0000 C   0  0  0  0  0  0  0  0  0  0  0  0
    3.7320    1.1550    0.0000 C   0  0  0  0  0  0  0  0  0  0  0  0
    3.7320    0.1550    0.0000 C   0  0  0  0  0  0  0  0  0  0  0  0
    4.5981    2.6550    0.0000 C   0  0  0  0  0  0  0  0  0  0  0  0
    2.8660    1.6550    0.0000 C   0  0  0  0  0  0  0  0  0  0  0  0
    4.5981   -0.3450    0.0000 C   0  0  0  0  0  0  0  0  0  0  0  0
    2.8660   -0.3450    0.0000 C   0  0  0  0  0  0  0  0  0  0  0  0
    3.7320    3.1550    0.0000 C   0  0  0  0  0  0  0  0  0  0  0  0
    2.8660   -1.3450    0.0000 C   0  0  0  0  0  0  0  0  0  0  0  0
    4.5981   -1.3450    0.0000 C   0  0  0  0  0  0  0  0  0  0  0  0
    3.7320   -1.8450    0.0000 C   0  0  0  0  0  0  0  0  0  0  0  0
    9.3267    0.6299    0.0000 H   0  0  0  0  0  0  0  0  0  0  0  0
    8.5297    0.6299    0.0000 H   0  0  0  0  0  0  0  0  0  0  0  0
    7.4516   -1.2373    0.0000 H   0  0  0  0  0  0  0  0  0  0  0  0
    7.8501   -1.9276    0.0000 H   0  0  0  0  0  0  0  0  0  0  0  0
   10.4048   -0.4527    0.0000 H   0  0  0  0  0  0  0  0  0  0  0  0
   10.0063    0.2376    0.0000 H   0  0  0  0  0  0  0  0  0  0  0  0
    8.5297   -2.3200    0.0000 H   0  0  0  0  0  0  0  0  0  0  0  0
    9.3267   -2.3200    0.0000 H   0  0  0  0  0  0  0  0  0  0  0  0
    7.7331    1.4650    0.0000 H   0  0  0  0  0  0  0  0  0  0  0  0
    6.3301   -0.9650    0.0000 H   0  0  0  0  0  0  0  0  0  0  0  0
    6.3301    2.2750    0.0000 H   0  0  0  0  0  0  0  0  0  0  0  0
    4.9272   -0.1550    0.0000 H   0  0  0  0  0  0  0  0  0  0  0  0
    5.1350    2.9650    0.0000 H   0  0  0  0  0  0  0  0  0  0  0  0
    2.3291    1.3450    0.0000 H   0  0  0  0  0  0  0  0  0  0  0  0
    5.1350   -0.0350    0.0000 H   0  0  0  0  0  0  0  0  0  0  0  0
    2.3291   -0.0350    0.0000 H   0  0  0  0  0  0  0  0  0  0  0  0
    3.7320    3.7750    0.0000 H   0  0  0  0  0  0  0  0  0  0  0  0
    3.1951   -3.1550    0.0000 H   0  0  0  0  0  0  0  0  0  0  0  0
  1 25  1  0  0  0  0
  2 26  1  0  0  0  0
  3 10  1  0  0  0  0
  3 11  1  0  0  0  0
  4 27  1  0  0  0  0
  4 45  1  0  0  0  0
  5  7  1  0  0  0  0
  5  8  1  0  0  0  0
  5  9  1  0  0  0  0
  6 21  2  0  0  0  0
  6 24  1  0  0  0  0
  7 10  1  0  0  0  0
  7 28  1  0  0  0  0
  7 29  1  0  0  0  0
  8 11  1  0  0  0  0
  8 30  1  0  0  0  0
  8 31  1  0  0  0  0
  9 12  2  0  0  0  0
  9 13  1  0  0  0  0
 10 32  1  0  0  0  0
 10 33  1  0  0  0  0
 11 34  1  0  0  0  0
 11 35  1  0  0  0  0
 12 15  1  0  0  0  0
 12 36  1  0  0  0  0
 13 16  2  0  0  0  0
 13 37  1  0  0  0  0
 14 15  2  0  0  0  0
 14 16  1  0  0  0  0
 14 17  1  0  0  0  0
 15 38  1  0  0  0  0
 16 39  1  0  0  0  0
 17 18  2  0  0  0  0
 17 20  1  0  0  0  0
 18 19  1  0  0  0  0
 18 21  1  0  0  0  0
 19 22  2  0  0  0  0
 19 23  1  0  0  0  0
 20 24  2  0  0  0  0
 20 40  1  0  0  0  0
 21 41  1  0  0  0  0
 22 26  1  0  0  0  0
 22 42  1  0  0  0  0
 23 25  2  0  0  0  0
 23 43  1  0  0  0  0
 24 44  1  0  0  0  0
 25 27  1  0  0  0  0
 26 27  2  0  0  0  0
M  END
> <PUBCHEM_COMPOUND_CID>
118704762

> <PUBCHEM_COMPOUND_CANONICALIZED>
1

> <PUBCHEM_CACTVS_COMPLEXITY>
457

> <PUBCHEM_CACTVS_HBOND_ACCEPTOR>
6

> <PUBCHEM_CACTVS_HBOND_DONOR>
1

> <PUBCHEM_CACTVS_ROTATABLE_BOND>
3

> <PUBCHEM_CACTVS_SUBSKEYS>
AAADceB7MYAAAAAAAAAAAAAAAAAAAAAAAAA8eIEAAAAAAAAB0AAAHwAACAAADAzhmg48xpMIFgCgAjRnRACCgCAxIiAI2CA8bJgKJmLCkZOHcAhkwBHY2AeQwPAOqAAAAAAAAABQAAAAAAAAAAAAAAAAAA==

> <PUBCHEM_IUPAC_OPENEYE_NAME>
2,6-difluoro-4-[4-(4-morpholinophenyl)-3-pyridyl]phenol

> <PUBCHEM_IUPAC_CAS_NAME>
2,6-difluoro-4-[4-[4-(4-morpholinyl)phenyl]-3-pyridinyl]phenol

> <PUBCHEM_IUPAC_NAME_MARKUP>
2,6-difluoro-4-[4-(4-morpholin-4-ylphenyl)pyridin-3-yl]phenol

> <PUBCHEM_IUPAC_NAME>
2,6-difluoro-4-[4-(4-morpholin-4-ylphenyl)pyridin-3-yl]phenol

> <PUBCHEM_IUPAC_SYSTEMATIC_NAME>
2,6-bis(fluoranyl)-4-[4-(4-morpholin-4-ylphenyl)pyridin-3-yl]phenol

> <PUBCHEM_IUPAC_TRADITIONAL_NAME>
2,6-difluoro-4-[4-(4-morpholinophenyl)-3-pyridyl]phenol

> <PUBCHEM_IUPAC_INCHI>
InChI=1S/C21H18F2N2O2/c22-19-11-15(12-20(23)21(19)26)18-13-24-6-5-17(18)14-1-3-16(4-2-14)25-7-9-27-10-8-25/h1-6,11-13,26H,7-10H2

> <PUBCHEM_IUPAC_INCHIKEY>
YUYJEQHNWKQNBT-UHFFFAOYSA-N

> <PUBCHEM_XLOGP3_AA>
3.7

> <PUBCHEM_EXACT_MASS>
368.133634

> <PUBCHEM_MOLECULAR_FORMULA>
C21H18F2N2O2

> <PUBCHEM_MOLECULAR_WEIGHT>
368.4

> <PUBCHEM_OPENEYE_CAN_SMILES>
C1COCCN1C2=CC=C(C=C2)C3=C(C=NC=C3)C4=CC(=C(C(=C4)F)O)F

> <PUBCHEM_OPENEYE_ISO_SMILES>
C1COCCN1C2=CC=C(C=C2)C3=C(C=NC=C3)C4=CC(=C(C(=C4)F)O)F

> <PUBCHEM_CACTVS_TPSA>
45.6

> <PUBCHEM_MONOISOTOPIC_WEIGHT>
368.133634

> <PUBCHEM_TOTAL_CHARGE>
0

> <PUBCHEM_HEAVY_ATOM_COUNT>
27

> <PUBCHEM_ATOM_DEF_STEREO_COUNT>
0

> <PUBCHEM_ATOM_UDEF_STEREO_COUNT>
0

> <PUBCHEM_BOND_DEF_STEREO_COUNT>
0

> <PUBCHEM_BOND_UDEF_STEREO_COUNT>
0

> <PUBCHEM_ISOTOPIC_ATOM_COUNT>
0

> <PUBCHEM_COMPONENT_COUNT>
1

> <PUBCHEM_CACTVS_TAUTO_COUNT>
-1

> <PUBCHEM_COORDINATE_TYPE>
1
5
255

> <PUBCHEM_BONDANNOTATIONS>
12  15  8
13  16  8
14  15  8
14  16  8
17  18  8
17  20  8
18  21  8
19  22  8
19  23  8
20  24  8
22  26  8
23  25  8
25  27  8
26  27  8
6  21  8
6  24  8
9  12  8
9  13  8

$$$$
117072552
  -OEChem-02182015172D

 56 59  0     1  0  0  0  0  0999 V2000
    7.2641    0.9827    0.0000 O   0  0  0  0  0  0  0  0  0  0  0  0
    9.8622   -1.5173    0.0000 O   0  0  0  0  0  0  0  0  0  0  0  0
   13.3263   -0.5173    0.0000 N   0  0  0  0  0  0  0  0  0  0  0  0
    5.5321   -0.0173    0.0000 N   0  0  3  0  0  0  0  0  0  0  0  0
    8.9962   -0.0173    0.0000 N   0  0  0  0  0  0  0  0  0  0  0  0
   12.4603    0.9827    0.0000 N   0  0  0  0  0  0  0  0  0  0  0  0
   14.1923   -0.0173    0.0000 C   0  0  0  0  0  0  0  0  0  0  0  0
   15.1582   -0.2762    0.0000 C   0  0  0  0  0  0  0  0  0  0  0  0
   14.4511    0.9486    0.0000 C   0  0  0  0  0  0  0  0  0  0  0  0
   15.4171    0.6898    0.0000 C   0  0  0  0  0  0  0  0  0  0  0  0
    5.5321    0.9827    0.0000 C   0  0  0  0  0  0  0  0  0  0  0  0
    4.6660   -0.5173    0.0000 C   0  0  0  0  0  0  0  0  0  0  0  0
    6.3981   -0.5173    0.0000 C   0  0  0  0  0  0  0  0  0  0  0  0
    4.6660    1.4827    0.0000 C   0  0  0  0  0  0  0  0  0  0  0  0
    3.8000   -0.0173    0.0000 C   0  0  0  0  0  0  0  0  0  0  0  0
    3.8000    0.9827    0.0000 C   0  0  0  0  0  0  0  0  0  0  0  0
    7.2641   -0.0173    0.0000 C   0  0  2  0  0  0  0  0  0  0  0  0
   12.4603   -0.0173    0.0000 C   0  0  0  0  0  0  0  0  0  0  0  0
    8.1301   -0.5173    0.0000 C   0  0  0  0  0  0  0  0  0  0  0  0
    2.9061   -0.5520    0.0000 C   0  0  0  0  0  0  0  0  0  0  0  0
    2.9061    1.5173    0.0000 C   0  0  0  0  0  0  0  0  0  0  0  0
   11.5942   -0.5173    0.0000 C   0  0  0  0  0  0  0  0  0  0  0  0
   10.7282   -0.0173    0.0000 C   0  0  0  0  0  0  0  0  0  0  0  0
    2.0000   -0.0381    0.0000 C   0  0  0  0  0  0  0  0  0  0  0  0
    2.0000    1.0035    0.0000 C   0  0  0  0  0  0  0  0  0  0  0  0
    9.8622   -0.5173    0.0000 C   0  0  0  0  0  0  0  0  0  0  0  0
   10.7282    0.9827    0.0000 C   0  0  0  0  0  0  0  0  0  0  0  0
   11.5942    1.4827    0.0000 C   0  0  0  0  0  0  0  0  0  0  0  0
   13.7004    0.3601    0.0000 H   0  0  0  0  0  0  0  0  0  0  0  0
   14.9978   -0.8750    0.0000 H   0  0  0  0  0  0  0  0  0  0  0  0
   15.7571   -0.4366    0.0000 H   0  0  0  0  0  0  0  0  0  0  0  0
   14.6116    1.5475    0.0000 H   0  0  0  0  0  0  0  0  0  0  0  0
   13.8523    1.1091    0.0000 H   0  0  0  0  0  0  0  0  0  0  0  0
   16.0159    0.5293    0.0000 H   0  0  0  0  0  0  0  0  0  0  0  0
   15.5775    1.2886    0.0000 H   0  0  0  0  0  0  0  0  0  0  0  0
   13.3263   -1.1373    0.0000 H   0  0  0  0  0  0  0  0  0  0  0  0
    6.1426    0.8750    0.0000 H   0  0  0  0  0  0  0  0  0  0  0  0
    5.7441    1.5653    0.0000 H   0  0  0  0  0  0  0  0  0  0  0  0
    4.2675   -0.9923    0.0000 H   0  0  0  0  0  0  0  0  0  0  0  0
    5.0646   -0.9923    0.0000 H   0  0  0  0  0  0  0  0  0  0  0  0
    5.9996   -0.9923    0.0000 H   0  0  0  0  0  0  0  0  0  0  0  0
    6.7966   -0.9923    0.0000 H   0  0  0  0  0  0  0  0  0  0  0  0
    5.0646    1.9576    0.0000 H   0  0  0  0  0  0  0  0  0  0  0  0
    4.2675    1.9576    0.0000 H   0  0  0  0  0  0  0  0  0  0  0  0
    7.8010    0.2927    0.0000 H   0  0  0  0  0  0  0  0  0  0  0  0
    7.7316   -0.9923    0.0000 H   0  0  0  0  0  0  0  0  0  0  0  0
    8.5287   -0.9923    0.0000 H   0  0  0  0  0  0  0  0  0  0  0  0
    2.9132   -1.1720    0.0000 H   0  0  0  0  0  0  0  0  0  0  0  0
    2.9132    2.1373    0.0000 H   0  0  0  0  0  0  0  0  0  0  0  0
   11.5942   -1.1373    0.0000 H   0  0  0  0  0  0  0  0  0  0  0  0
    8.9962    0.6027    0.0000 H   0  0  0  0  0  0  0  0  0  0  0  0
    1.4643   -0.3502    0.0000 H   0  0  0  0  0  0  0  0  0  0  0  0
    1.4643    1.3156    0.0000 H   0  0  0  0  0  0  0  0  0  0  0  0
    7.8010    1.2927    0.0000 H   0  0  0  0  0  0  0  0  0  0  0  0
   10.1913    1.2927    0.0000 H   0  0  0  0  0  0  0  0  0  0  0  0
   11.5942    2.1027    0.0000 H   0  0  0  0  0  0  0  0  0  0  0  0
 17  1  1  1  0  0  0
  1 54  1  0  0  0  0
  2 26  2  0  0  0  0
  3  7  1  0  0  0  0
  3 18  1  0  0  0  0
  3 36  1  0  0  0  0
  4 11  1  0  0  0  0
  4 12  1  0  0  0  0
  4 13  1  0  0  0  0
  5 19  1  0  0  0  0
  5 26  1  0  0  0  0
  5 51  1  0  0  0  0
  6 18  2  0  0  0  0
  6 28  1  0  0  0  0
  7  8  1  0  0  0  0
  7  9  1  0  0  0  0
  7 29  1  0  0  0  0
  8 10  1  0  0  0  0
  8 30  1  0  0  0  0
  8 31  1  0  0  0  0
  9 10  1  0  0  0  0
  9 32  1  0  0  0  0
  9 33  1  0  0  0  0
 10 34  1  0  0  0  0
 10 35  1  0  0  0  0
 11 14  1  0  0  0  0
 11 37  1  0  0  0  0
 11 38  1  0  0  0  0
 12 15  1  0  0  0  0
 12 39  1  0  0  0  0
 12 40  1  0  0  0  0
 13 17  1  0  0  0  0
 13 41  1  0  0  0  0
 13 42  1  0  0  0  0
 14 16  1  0  0  0  0
 14 43  1  0  0  0  0
 14 44  1  0  0  0  0
 15 16  1  0  0  0  0
 15 20  2  0  0  0  0
 16 21  2  0  0  0  0
 17 19  1  0  0  0  0
 17 45  1  0  0  0  0
 18 22  1  0  0  0  0
 19 46  1  0  0  0  0
 19 47  1  0  0  0  0
 20 24  1  0  0  0  0
 20 48  1  0  0  0  0
 21 25  1  0  0  0  0
 21 49  1  0  0  0  0
 22 23  2  0  0  0  0
 22 50  1  0  0  0  0
 23 26  1  0  0  0  0
 23 27  1  0  0  0  0
 24 25  2  0  0  0  0
 24 52  1  0  0  0  0
 25 53  1  0  0  0  0
 27 28  2  0  0  0  0
 27 55  1  0  0  0  0
 28 56  1  0  0  0  0
M  END
> <PUBCHEM_COMPOUND_CID>
117072552

> <PUBCHEM_COMPOUND_CANONICALIZED>
1

> <PUBCHEM_CACTVS_COMPLEXITY>
513

> <PUBCHEM_CACTVS_HBOND_ACCEPTOR>
5

> <PUBCHEM_CACTVS_HBOND_DONOR>
3

> <PUBCHEM_CACTVS_ROTATABLE_BOND>
7

> <PUBCHEM_CACTVS_SUBSKEYS>
AAADceB7sAAAAAAAAAAAAAAAAABgAAAAAAA8WIAAAAAAAACxwAAAHgAQCAAADDzhmgY9sJPIEgCoAjN3dACCgCk1AiAJ2KE4ZNiKMHLA3ZGEIQholgLYyacUgIAOgAAAAAAQAAAAAAAAACAAAAAAAAAAAA==

> <PUBCHEM_IUPAC_OPENEYE_NAME>
2-(cyclobutylamino)-N-[(2S)-3-(3,4-dihydro-1H-isoquinolin-2-yl)-2-hydroxy-propyl]pyridine-4-carboxamide

> <PUBCHEM_IUPAC_CAS_NAME>
2-(cyclobutylamino)-N-[(2S)-3-(3,4-dihydro-1H-isoquinolin-2-yl)-2-hydroxypropyl]-4-pyridinecarboxamide

> <PUBCHEM_IUPAC_NAME_MARKUP>
2-(cyclobutylamino)-<I>N</I>-[(2<I>S</I>)-3-(3,4-dihydro-1<I>H</I>-isoquinolin-2-yl)-2-hydroxypropyl]pyridine-4-carboxamide

> <PUBCHEM_IUPAC_NAME>
2-(cyclobutylamino)-N-[(2S)-3-(3,4-dihydro-1H-isoquinolin-2-yl)-2-hydroxypropyl]pyridine-4-carboxamide

> <PUBCHEM_IUPAC_SYSTEMATIC_NAME>
2-(cyclobutylamino)-N-[(2S)-3-(3,4-dihydro-1H-isoquinolin-2-yl)-2-oxidanyl-propyl]pyridine-4-carboxamide

> <PUBCHEM_IUPAC_TRADITIONAL_NAME>
2-(cyclobutylamino)-N-[(2S)-3-(3,4-dihydro-1H-isoquinolin-2-yl)-2-hydroxy-propyl]isonicotinamide

> <PUBCHEM_IUPAC_INCHI>
InChI=1S/C22H28N4O2/c27-20(15-26-11-9-16-4-1-2-5-18(16)14-26)13-24-22(28)17-8-10-23-21(12-17)25-19-6-3-7-19/h1-2,4-5,8,10,12,19-20,27H,3,6-7,9,11,13-15H2,(H,23,25)(H,24,28)/t20-/m0/s1

> <PUBCHEM_IUPAC_INCHIKEY>
TWKYXZSXXXKKJU-FQEVSTJZSA-N

> <PUBCHEM_XLOGP3_AA>
2.3

> <PUBCHEM_EXACT_MASS>
380.221226

> <PUBCHEM_MOLECULAR_FORMULA>
C22H28N4O2

> <PUBCHEM_MOLECULAR_WEIGHT>
380.5

> <PUBCHEM_OPENEYE_CAN_SMILES>
C1CC(C1)NC2=NC=CC(=C2)C(=O)NCC(CN3CCC4=CC=CC=C4C3)O

> <PUBCHEM_OPENEYE_ISO_SMILES>
C1CC(C1)NC2=NC=CC(=C2)C(=O)NC[C@@H](CN3CCC4=CC=CC=C4C3)O

> <PUBCHEM_CACTVS_TPSA>
77.5

> <PUBCHEM_MONOISOTOPIC_WEIGHT>
380.221226

> <PUBCHEM_TOTAL_CHARGE>
0

> <PUBCHEM_HEAVY_ATOM_COUNT>
28

> <PUBCHEM_ATOM_DEF_STEREO_COUNT>
1

> <PUBCHEM_ATOM_UDEF_STEREO_COUNT>
0

> <PUBCHEM_BOND_DEF_STEREO_COUNT>
0

> <PUBCHEM_BOND_UDEF_STEREO_COUNT>
0

> <PUBCHEM_ISOTOPIC_ATOM_COUNT>
0

> <PUBCHEM_COMPONENT_COUNT>
1

> <PUBCHEM_CACTVS_TAUTO_COUNT>
-1

> <PUBCHEM_COORDINATE_TYPE>
1
5
255

> <PUBCHEM_BONDANNOTATIONS>
17  1  5
15  16  8
15  20  8
16  21  8
18  22  8
20  24  8
21  25  8
22  23  8
23  27  8
24  25  8
27  28  8
6  18  8
6  28  8

$$$$
51000408
  -OEChem-02182015172D

 42 44  0     0  0  0  0  0  0999 V2000
   10.6603   -1.3100    0.0000 S   0  0  0  0  0  0  0  0  0  0  0  0
   11.1603   -0.4440    0.0000 O   0  0  0  0  0  0  0  0  0  0  0  0
   10.1603   -2.1760    0.0000 O   0  0  0  0  0  0  0  0  0  0  0  0
    3.7320    0.6900    0.0000 O   0  0  0  0  0  0  0  0  0  0  0  0
    6.3301    0.1900    0.0000 N   0  0  0  0  0  0  0  0  0  0  0  0
    4.5981   -0.8100    0.0000 N   0  0  0  0  0  0  0  0  0  0  0  0
    6.3301    2.1900    0.0000 N   0  0  0  0  0  0  0  0  0  0  0  0
    4.5981    2.1900    0.0000 N   0  0  0  0  0  0  0  0  0  0  0  0
    9.7942   -0.8100    0.0000 C   0  0  0  0  0  0  0  0  0  0  0  0
    8.0622    0.1900    0.0000 C   0  0  0  0  0  0  0  0  0  0  0  0
    9.7942    0.1900    0.0000 C   0  0  0  0  0  0  0  0  0  0  0  0
    8.9282   -1.3100    0.0000 C   0  0  0  0  0  0  0  0  0  0  0  0
    8.9282    0.6900    0.0000 C   0  0  0  0  0  0  0  0  0  0  0  0
    8.0622   -0.8100    0.0000 C   0  0  0  0  0  0  0  0  0  0  0  0
    7.1962    0.6900    0.0000 C   0  0  0  0  0  0  0  0  0  0  0  0
   11.5263   -1.8100    0.0000 C   0  0  0  0  0  0  0  0  0  0  0  0
    5.4641    0.6900    0.0000 C   0  0  0  0  0  0  0  0  0  0  0  0
    7.1962    1.6900    0.0000 C   0  0  0  0  0  0  0  0  0  0  0  0
    5.4641    1.6900    0.0000 C   0  0  0  0  0  0  0  0  0  0  0  0
    4.5981    0.1900    0.0000 C   0  0  0  0  0  0  0  0  0  0  0  0
    3.7320   -1.3100    0.0000 C   0  0  0  0  0  0  0  0  0  0  0  0
    2.8660   -0.8100    0.0000 C   0  0  0  0  0  0  0  0  0  0  0  0
    3.7320   -2.3100    0.0000 C   0  0  0  0  0  0  0  0  0  0  0  0
    2.0000   -1.3100    0.0000 C   0  0  0  0  0  0  0  0  0  0  0  0
    2.8660   -2.8100    0.0000 C   0  0  0  0  0  0  0  0  0  0  0  0
    2.0000   -2.3100    0.0000 C   0  0  0  0  0  0  0  0  0  0  0  0
   10.3312    0.5000    0.0000 H   0  0  0  0  0  0  0  0  0  0  0  0
    8.9282   -1.9300    0.0000 H   0  0  0  0  0  0  0  0  0  0  0  0
    8.9282    1.3100    0.0000 H   0  0  0  0  0  0  0  0  0  0  0  0
    7.5252   -1.1200    0.0000 H   0  0  0  0  0  0  0  0  0  0  0  0
   11.2163   -2.3469    0.0000 H   0  0  0  0  0  0  0  0  0  0  0  0
   12.0632   -2.1200    0.0000 H   0  0  0  0  0  0  0  0  0  0  0  0
   11.8363   -1.2731    0.0000 H   0  0  0  0  0  0  0  0  0  0  0  0
    7.7331    2.0000    0.0000 H   0  0  0  0  0  0  0  0  0  0  0  0
    5.1350   -1.1200    0.0000 H   0  0  0  0  0  0  0  0  0  0  0  0
    2.8660   -0.1900    0.0000 H   0  0  0  0  0  0  0  0  0  0  0  0
    4.2690   -2.6200    0.0000 H   0  0  0  0  0  0  0  0  0  0  0  0
    1.4631   -1.0000    0.0000 H   0  0  0  0  0  0  0  0  0  0  0  0
    2.8660   -3.4300    0.0000 H   0  0  0  0  0  0  0  0  0  0  0  0
    4.5981    2.8100    0.0000 H   0  0  0  0  0  0  0  0  0  0  0  0
    4.0611    1.8800    0.0000 H   0  0  0  0  0  0  0  0  0  0  0  0
    1.4631   -2.6200    0.0000 H   0  0  0  0  0  0  0  0  0  0  0  0
  1  2  2  0  0  0  0
  1  3  2  0  0  0  0
  1  9  1  0  0  0  0
  1 16  1  0  0  0  0
  4 20  2  0  0  0  0
  5 15  1  0  0  0  0
  5 17  2  0  0  0  0
  6 20  1  0  0  0  0
  6 21  1  0  0  0  0
  6 35  1  0  0  0  0
  7 18  1  0  0  0  0
  7 19  2  0  0  0  0
  8 19  1  0  0  0  0
  8 40  1  0  0  0  0
  8 41  1  0  0  0  0
  9 11  2  0  0  0  0
  9 12  1  0  0  0  0
 10 13  2  0  0  0  0
 10 14  1  0  0  0  0
 10 15  1  0  0  0  0
 11 13  1  0  0  0  0
 11 27  1  0  0  0  0
 12 14  2  0  0  0  0
 12 28  1  0  0  0  0
 13 29  1  0  0  0  0
 14 30  1  0  0  0  0
 15 18  2  0  0  0  0
 16 31  1  0  0  0  0
 16 32  1  0  0  0  0
 16 33  1  0  0  0  0
 17 19  1  0  0  0  0
 17 20  1  0  0  0  0
 18 34  1  0  0  0  0
 21 22  2  0  0  0  0
 21 23  1  0  0  0  0
 22 24  1  0  0  0  0
 22 36  1  0  0  0  0
 23 25  2  0  0  0  0
 23 37  1  0  0  0  0
 24 26  2  0  0  0  0
 24 38  1  0  0  0  0
 25 26  1  0  0  0  0
 25 39  1  0  0  0  0
 26 42  1  0  0  0  0
M  END
> <PUBCHEM_COMPOUND_CID>
51000408

> <PUBCHEM_COMPOUND_CANONICALIZED>
1

> <PUBCHEM_CACTVS_COMPLEXITY>
578

> <PUBCHEM_CACTVS_HBOND_ACCEPTOR>
6

> <PUBCHEM_CACTVS_HBOND_DONOR>
2

> <PUBCHEM_CACTVS_ROTATABLE_BOND>
4

> <PUBCHEM_CACTVS_SUBSKEYS>
AAADceB7sABAAAAAAAAAAAAAAAAAAAAAAAA8YIAAAAAAAAAB0AAAHgQQAAAADAjB3gS/8ZLIEAqoAzd3dHDCgC03GjAI2Dm4dNiIYOrg0bGUIIhglALIyGcQgIAOEAAAAAAAAAAgAAAAAAAAAAAAAAAAAA==

> <PUBCHEM_IUPAC_OPENEYE_NAME>
3-amino-6-(4-methylsulfonylphenyl)-N-phenyl-pyrazine-2-carboxamide

> <PUBCHEM_IUPAC_CAS_NAME>
3-amino-6-(4-methylsulfonylphenyl)-N-phenyl-2-pyrazinecarboxamide

> <PUBCHEM_IUPAC_NAME_MARKUP>
3-amino-6-(4-methylsulfonylphenyl)-<I>N</I>-phenylpyrazine-2-carboxamide

> <PUBCHEM_IUPAC_NAME>
3-amino-6-(4-methylsulfonylphenyl)-N-phenylpyrazine-2-carboxamide

> <PUBCHEM_IUPAC_SYSTEMATIC_NAME>
3-azanyl-6-(4-methylsulfonylphenyl)-N-phenyl-pyrazine-2-carboxamide

> <PUBCHEM_IUPAC_TRADITIONAL_NAME>
3-amino-6-(4-mesylphenyl)-N-phenyl-pyrazinamide

> <PUBCHEM_IUPAC_INCHI>
InChI=1S/C18H16N4O3S/c1-26(24,25)14-9-7-12(8-10-14)15-11-20-17(19)16(22-15)18(23)21-13-5-3-2-4-6-13/h2-11H,1H3,(H2,19,20)(H,21,23)

> <PUBCHEM_IUPAC_INCHIKEY>
DUIHHZKTCSNTGM-UHFFFAOYSA-N

> <PUBCHEM_XLOGP3_AA>
2.1

> <PUBCHEM_EXACT_MASS>
368.094312

> <PUBCHEM_MOLECULAR_FORMULA>
C18H16N4O3S

> <PUBCHEM_MOLECULAR_WEIGHT>
368.4

> <PUBCHEM_OPENEYE_CAN_SMILES>
CS(=O)(=O)C1=CC=C(C=C1)C2=CN=C(C(=N2)C(=O)NC3=CC=CC=C3)N

> <PUBCHEM_OPENEYE_ISO_SMILES>
CS(=O)(=O)C1=CC=C(C=C1)C2=CN=C(C(=N2)C(=O)NC3=CC=CC=C3)N

> <PUBCHEM_CACTVS_TPSA>
123

> <PUBCHEM_MONOISOTOPIC_WEIGHT>
368.094312

> <PUBCHEM_TOTAL_CHARGE>
0

> <PUBCHEM_HEAVY_ATOM_COUNT>
26

> <PUBCHEM_ATOM_DEF_STEREO_COUNT>
0

> <PUBCHEM_ATOM_UDEF_STEREO_COUNT>
0

> <PUBCHEM_BOND_DEF_STEREO_COUNT>
0

> <PUBCHEM_BOND_UDEF_STEREO_COUNT>
0

> <PUBCHEM_ISOTOPIC_ATOM_COUNT>
0

> <PUBCHEM_COMPONENT_COUNT>
1

> <PUBCHEM_CACTVS_TAUTO_COUNT>
-1

> <PUBCHEM_COORDINATE_TYPE>
1
5
255

> <PUBCHEM_BONDANNOTATIONS>
10  13  8
10  14  8
11  13  8
12  14  8
15  18  8
17  19  8
21  22  8
21  23  8
22  24  8
23  25  8
24  26  8
25  26  8
5  15  8
5  17  8
7  18  8
7  19  8
9  11  8
9  12  8

$$$$
11977753
  -OEChem-02182015172D

 59 64  0     0  0  0  0  0  0999 V2000
    2.6096   -2.6933    0.0000 O   0  0  0  0  0  0  0  0  0  0  0  0
    4.1932   -1.8886    0.0000 N   0  0  0  0  0  0  0  0  0  0  0  0
    4.1932   -3.4980    0.0000 N   0  0  0  0  0  0  0  0  0  0  0  0
    6.8714   -3.1933    0.0000 N   0  0  0  0  0  0  0  0  0  0  0  0
    6.0117    2.3726    0.0000 N   0  0  0  0  0  0  0  0  0  0  0  0
    2.3292    3.8145    0.0000 N   0  0  0  0  0  0  0  0  0  0  0  0
    5.1394   -2.1933    0.0000 C   0  0  0  0  0  0  0  0  0  0  0  0
    5.1394   -3.1933    0.0000 C   0  0  0  0  0  0  0  0  0  0  0  0
    6.0054   -1.6933    0.0000 C   0  0  0  0  0  0  0  0  0  0  0  0
    3.8825   -0.9381    0.0000 C   0  0  0  0  0  0  0  0  0  0  0  0
    3.6096   -2.6933    0.0000 C   0  0  0  0  0  0  0  0  0  0  0  0
    6.8714   -2.1933    0.0000 C   0  0  0  0  0  0  0  0  0  0  0  0
    2.9505    1.9135    0.0000 C   0  0  0  0  0  0  0  0  0  0  0  0
    3.2612    0.9630    0.0000 C   0  0  0  0  0  0  0  0  0  0  0  0
    5.9894   -0.6518    0.0000 C   0  0  0  0  0  0  0  0  0  0  0  0
    6.0054   -3.6933    0.0000 C   0  0  0  0  0  0  0  0  0  0  0  0
    4.5504   -0.1938    0.0000 C   0  0  0  0  0  0  0  0  0  0  0  0
    2.9040   -0.7318    0.0000 C   0  0  0  0  0  0  0  0  0  0  0  0
    6.8874   -0.1241    0.0000 C   0  0  0  0  0  0  0  0  0  0  0  0
    3.8825   -4.4486    0.0000 C   0  0  0  0  0  0  0  0  0  0  0  0
    4.2397    0.7568    0.0000 C   0  0  0  0  0  0  0  0  0  0  0  0
    2.5933    0.2187    0.0000 C   0  0  0  0  0  0  0  0  0  0  0  0
    7.7814   -1.6865    0.0000 C   0  0  0  0  0  0  0  0  0  0  0  0
    7.7895   -0.6449    0.0000 C   0  0  0  0  0  0  0  0  0  0  0  0
    2.0000    1.6028    0.0000 C   0  0  0  0  0  0  0  0  0  0  0  0
    3.9010    2.2242    0.0000 C   0  0  0  0  0  0  0  0  0  0  0  0
    6.8835    0.8759    0.0000 C   0  0  0  0  0  0  0  0  0  0  0  0
    7.7476    1.3793    0.0000 C   0  0  0  0  0  0  0  0  0  0  0  0
    2.6399    2.8640    0.0000 C   0  0  0  0  0  0  0  0  0  0  0  0
    6.0156    1.3726    0.0000 C   0  0  0  0  0  0  0  0  0  0  0  0
    7.7438    2.3793    0.0000 C   0  0  0  0  0  0  0  0  0  0  0  0
    6.8758    2.8759    0.0000 C   0  0  0  0  0  0  0  0  0  0  0  0
    8.6518    2.8896    0.0000 C   0  0  0  0  0  0  0  0  0  0  0  0
    6.8558    3.9174    0.0000 C   0  0  0  0  0  0  0  0  0  0  0  0
    8.6558    3.9312    0.0000 C   0  0  0  0  0  0  0  0  0  0  0  0
    7.7518    4.4486    0.0000 C   0  0  0  0  0  0  0  0  0  0  0  0
    5.4489   -0.3480    0.0000 H   0  0  0  0  0  0  0  0  0  0  0  0
    6.0054   -4.3133    0.0000 H   0  0  0  0  0  0  0  0  0  0  0  0
    5.1570   -0.3216    0.0000 H   0  0  0  0  0  0  0  0  0  0  0  0
    2.4899   -1.1933    0.0000 H   0  0  0  0  0  0  0  0  0  0  0  0
    3.2932   -4.2560    0.0000 H   0  0  0  0  0  0  0  0  0  0  0  0
    3.6899   -5.0379    0.0000 H   0  0  0  0  0  0  0  0  0  0  0  0
    4.4718   -4.6412    0.0000 H   0  0  0  0  0  0  0  0  0  0  0  0
    4.6537    1.2182    0.0000 H   0  0  0  0  0  0  0  0  0  0  0  0
    1.9867    0.3465    0.0000 H   0  0  0  0  0  0  0  0  0  0  0  0
    8.3148   -2.0027    0.0000 H   0  0  0  0  0  0  0  0  0  0  0  0
    8.3276   -0.3369    0.0000 H   0  0  0  0  0  0  0  0  0  0  0  0
    1.8074    2.1922    0.0000 H   0  0  0  0  0  0  0  0  0  0  0  0
    1.4107    1.4102    0.0000 H   0  0  0  0  0  0  0  0  0  0  0  0
    2.1926    1.0135    0.0000 H   0  0  0  0  0  0  0  0  0  0  0  0
    4.0936    1.6348    0.0000 H   0  0  0  0  0  0  0  0  0  0  0  0
    4.4904    2.4168    0.0000 H   0  0  0  0  0  0  0  0  0  0  0  0
    3.7084    2.8135    0.0000 H   0  0  0  0  0  0  0  0  0  0  0  0
    8.2858    1.0713    0.0000 H   0  0  0  0  0  0  0  0  0  0  0  0
    5.4798    1.0605    0.0000 H   0  0  0  0  0  0  0  0  0  0  0  0
    9.1863    2.5755    0.0000 H   0  0  0  0  0  0  0  0  0  0  0  0
    6.3141    4.2190    0.0000 H   0  0  0  0  0  0  0  0  0  0  0  0
    9.1928    4.2412    0.0000 H   0  0  0  0  0  0  0  0  0  0  0  0
    7.7470    5.0686    0.0000 H   0  0  0  0  0  0  0  0  0  0  0  0
  1 11  2  0  0  0  0
  2  7  1  0  0  0  0
  2 10  1  0  0  0  0
  2 11  1  0  0  0  0
  3  8  1  0  0  0  0
  3 11  1  0  0  0  0
  3 20  1  0  0  0  0
  4 12  2  0  0  0  0
  4 16  1  0  0  0  0
  5 30  2  0  0  0  0
  5 32  1  0  0  0  0
  6 29  3  0  0  0  0
  7  8  1  0  0  0  0
  7  9  2  0  0  0  0
  8 16  2  0  0  0  0
  9 12  1  0  0  0  0
  9 15  1  0  0  0  0
 10 17  2  0  0  0  0
 10 18  1  0  0  0  0
 12 23  1  0  0  0  0
 13 14  1  0  0  0  0
 13 25  1  0  0  0  0
 13 26  1  0  0  0  0
 13 29  1  0  0  0  0
 14 21  2  0  0  0  0
 14 22  1  0  0  0  0
 15 19  2  0  0  0  0
 15 37  1  0  0  0  0
 16 38  1  0  0  0  0
 17 21  1  0  0  0  0
 17 39  1  0  0  0  0
 18 22  2  0  0  0  0
 18 40  1  0  0  0  0
 19 24  1  0  0  0  0
 19 27  1  0  0  0  0
 20 41  1  0  0  0  0
 20 42  1  0  0  0  0
 20 43  1  0  0  0  0
 21 44  1  0  0  0  0
 22 45  1  0  0  0  0
 23 24  2  0  0  0  0
 23 46  1  0  0  0  0
 24 47  1  0  0  0  0
 25 48  1  0  0  0  0
 25 49  1  0  0  0  0
 25 50  1  0  0  0  0
 26 51  1  0  0  0  0
 26 52  1  0  0  0  0
 26 53  1  0  0  0  0
 27 28  2  0  0  0  0
 27 30  1  0  0  0  0
 28 31  1  0  0  0  0
 28 54  1  0  0  0  0
 30 55  1  0  0  0  0
 31 32  1  0  0  0  0
 31 33  2  0  0  0  0
 32 34  2  0  0  0  0
 33 35  1  0  0  0  0
 33 56  1  0  0  0  0
 34 36  1  0  0  0  0
 34 57  1  0  0  0  0
 35 36  2  0  0  0  0
 35 58  1  0  0  0  0
 36 59  1  0  0  0  0
M  END
> <PUBCHEM_COMPOUND_CID>
11977753

> <PUBCHEM_COMPOUND_CANONICALIZED>
1

> <PUBCHEM_CACTVS_COMPLEXITY>
872

> <PUBCHEM_CACTVS_HBOND_ACCEPTOR>
4

> <PUBCHEM_CACTVS_HBOND_DONOR>
0

> <PUBCHEM_CACTVS_ROTATABLE_BOND>
3

> <PUBCHEM_CACTVS_SUBSKEYS>
AAADceB7oAAAAAAAAAAAAAAAAAAAAWAAAAA8eMECAAAAAFix/gAAHgAAAAAADgjBHgQ/wPMIEAC4BzRnVACCgCAxEiAI2CA4dJiI4OLA0dGUJAhohgLIyC8QgMAPiAACAAACAAAQAAQAAAQAAAAAAAAAAA==

> <PUBCHEM_IUPAC_OPENEYE_NAME>
2-methyl-2-[4-[3-methyl-2-oxo-8-(3-quinolyl)imidazo[4,5-c]quinolin-1-yl]phenyl]propanenitrile

> <PUBCHEM_IUPAC_CAS_NAME>
2-methyl-2-[4-[3-methyl-2-oxo-8-(3-quinolinyl)-1-imidazo[4,5-c]quinolinyl]phenyl]propanenitrile

> <PUBCHEM_IUPAC_NAME_MARKUP>
2-methyl-2-[4-(3-methyl-2-oxo-8-quinolin-3-ylimidazo[4,5-c]quinolin-1-yl)phenyl]propanenitrile

> <PUBCHEM_IUPAC_NAME>
2-methyl-2-[4-(3-methyl-2-oxo-8-quinolin-3-ylimidazo[4,5-c]quinolin-1-yl)phenyl]propanenitrile

> <PUBCHEM_IUPAC_SYSTEMATIC_NAME>
2-methyl-2-[4-(3-methyl-2-oxidanylidene-8-quinolin-3-yl-imidazo[4,5-c]quinolin-1-yl)phenyl]propanenitrile

> <PUBCHEM_IUPAC_TRADITIONAL_NAME>
2-[4-[2-keto-3-methyl-8-(3-quinolyl)imidazo[4,5-c]quinolin-1-yl]phenyl]-2-methyl-propionitrile

> <PUBCHEM_IUPAC_INCHI>
InChI=1S/C30H23N5O/c1-30(2,18-31)22-9-11-23(12-10-22)35-28-24-15-19(21-14-20-6-4-5-7-25(20)32-16-21)8-13-26(24)33-17-27(28)34(3)29(35)36/h4-17H,1-3H3

> <PUBCHEM_IUPAC_INCHIKEY>
JOGKUKXHTYWRGZ-UHFFFAOYSA-N

> <PUBCHEM_XLOGP3_AA>
5.2

> <PUBCHEM_EXACT_MASS>
469.19026

> <PUBCHEM_MOLECULAR_FORMULA>
C30H23N5O

> <PUBCHEM_MOLECULAR_WEIGHT>
469.5

> <PUBCHEM_OPENEYE_CAN_SMILES>
CC(C)(C#N)C1=CC=C(C=C1)N2C3=C4C=C(C=CC4=NC=C3N(C2=O)C)C5=CC6=CC=CC=C6N=C5

> <PUBCHEM_OPENEYE_ISO_SMILES>
CC(C)(C#N)C1=CC=C(C=C1)N2C3=C4C=C(C=CC4=NC=C3N(C2=O)C)C5=CC6=CC=CC=C6N=C5

> <PUBCHEM_CACTVS_TPSA>
73.1

> <PUBCHEM_MONOISOTOPIC_WEIGHT>
469.19026

> <PUBCHEM_TOTAL_CHARGE>
0

> <PUBCHEM_HEAVY_ATOM_COUNT>
36

> <PUBCHEM_ATOM_DEF_STEREO_COUNT>
0

> <PUBCHEM_ATOM_UDEF_STEREO_COUNT>
0

> <PUBCHEM_BOND_DEF_STEREO_COUNT>
0

> <PUBCHEM_BOND_UDEF_STEREO_COUNT>
0

> <PUBCHEM_ISOTOPIC_ATOM_COUNT>
0

> <PUBCHEM_COMPONENT_COUNT>
1

> <PUBCHEM_CACTVS_TAUTO_COUNT>
-1

> <PUBCHEM_COORDINATE_TYPE>
1
5
255

> <PUBCHEM_BONDANNOTATIONS>
10  17  8
10  18  8
12  23  8
14  21  8
14  22  8
15  19  8
17  21  8
18  22  8
19  24  8
2  11  8
2  7  8
23  24  8
27  28  8
27  30  8
28  31  8
3  11  8
3  8  8
31  32  8
31  33  8
32  34  8
33  35  8
34  36  8
35  36  8
4  12  8
4  16  8
5  30  8
5  32  8
7  8  8
7  9  8
8  16  8
9  12  8
9  15  8

$$$$
72200024
  -OEChem-02182015172D

 64 67  0     0  0  0  0  0  0999 V2000
    8.0622    1.5000    0.0000 Cl  0  0  0  0  0  0  0  0  0  0  0  0
    2.8660   -1.5000    0.0000 O   0  0  0  0  0  0  0  0  0  0  0  0
    6.3301    2.5000    0.0000 O   0  0  0  0  0  0  0  0  0  0  0  0
    2.8660    5.5000    0.0000 O   0  0  0  0  0  0  0  0  0  0  0  0
    4.5981   -4.5000    0.0000 N   0  0  0  0  0  0  0  0  0  0  0  0
    4.5981   -6.5000    0.0000 N   0  0  0  0  0  0  0  0  0  0  0  0
    4.5981   -0.5000    0.0000 N   0  0  0  0  0  0  0  0  0  0  0  0
    5.4641    1.0000    0.0000 N   0  0  0  0  0  0  0  0  0  0  0  0
    6.3301   -0.5000    0.0000 N   0  0  0  0  0  0  0  0  0  0  0  0
    4.5981    5.5000    0.0000 N   0  0  0  0  0  0  0  0  0  0  0  0
    5.4641   -5.0000    0.0000 C   0  0  0  0  0  0  0  0  0  0  0  0
    3.7320   -5.0000    0.0000 C   0  0  0  0  0  0  0  0  0  0  0  0
    5.4641   -6.0000    0.0000 C   0  0  0  0  0  0  0  0  0  0  0  0
    3.7320   -6.0000    0.0000 C   0  0  0  0  0  0  0  0  0  0  0  0
    4.5981   -3.5000    0.0000 C   0  0  0  0  0  0  0  0  0  0  0  0
    4.5981   -7.5000    0.0000 C   0  0  0  0  0  0  0  0  0  0  0  0
    3.7320   -3.0000    0.0000 C   0  0  0  0  0  0  0  0  0  0  0  0
    5.4641   -3.0000    0.0000 C   0  0  0  0  0  0  0  0  0  0  0  0
    3.7320   -2.0000    0.0000 C   0  0  0  0  0  0  0  0  0  0  0  0
    5.4641   -2.0000    0.0000 C   0  0  0  0  0  0  0  0  0  0  0  0
    4.5981   -1.5000    0.0000 C   0  0  0  0  0  0  0  0  0  0  0  0
    5.4641   -0.0000    0.0000 C   0  0  0  0  0  0  0  0  0  0  0  0
    2.0000   -2.0000    0.0000 C   0  0  0  0  0  0  0  0  0  0  0  0
    6.3301    1.5000    0.0000 C   0  0  0  0  0  0  0  0  0  0  0  0
    7.1962   -0.0000    0.0000 C   0  0  0  0  0  0  0  0  0  0  0  0
    7.1962    1.0000    0.0000 C   0  0  0  0  0  0  0  0  0  0  0  0
    5.4641    3.0000    0.0000 C   0  0  0  0  0  0  0  0  0  0  0  0
    4.5981    4.5000    0.0000 C   0  0  0  0  0  0  0  0  0  0  0  0
    5.4641    4.0000    0.0000 C   0  0  0  0  0  0  0  0  0  0  0  0
    4.5981    2.5000    0.0000 C   0  0  0  0  0  0  0  0  0  0  0  0
    3.7320    4.0000    0.0000 C   0  0  0  0  0  0  0  0  0  0  0  0
    3.7320    3.0000    0.0000 C   0  0  0  0  0  0  0  0  0  0  0  0
    3.7320    7.0000    0.0000 C   0  0  0  0  0  0  0  0  0  0  0  0
    3.7320    6.0000    0.0000 C   0  0  0  0  0  0  0  0  0  0  0  0
    2.8660    7.5000    0.0000 C   0  0  0  0  0  0  0  0  0  0  0  0
    6.0747   -5.1077    0.0000 H   0  0  0  0  0  0  0  0  0  0  0  0
    5.6762   -4.4174    0.0000 H   0  0  0  0  0  0  0  0  0  0  0  0
    3.5200   -4.4174    0.0000 H   0  0  0  0  0  0  0  0  0  0  0  0
    3.1215   -5.1077    0.0000 H   0  0  0  0  0  0  0  0  0  0  0  0
    5.6762   -6.5826    0.0000 H   0  0  0  0  0  0  0  0  0  0  0  0
    6.0747   -5.8923    0.0000 H   0  0  0  0  0  0  0  0  0  0  0  0
    3.1215   -5.8923    0.0000 H   0  0  0  0  0  0  0  0  0  0  0  0
    3.5200   -6.5826    0.0000 H   0  0  0  0  0  0  0  0  0  0  0  0
    3.9781   -7.5000    0.0000 H   0  0  0  0  0  0  0  0  0  0  0  0
    4.5981   -8.1200    0.0000 H   0  0  0  0  0  0  0  0  0  0  0  0
    5.2181   -7.5000    0.0000 H   0  0  0  0  0  0  0  0  0  0  0  0
    3.1951   -3.3100    0.0000 H   0  0  0  0  0  0  0  0  0  0  0  0
    6.0010   -3.3100    0.0000 H   0  0  0  0  0  0  0  0  0  0  0  0
    6.0010   -1.6900    0.0000 H   0  0  0  0  0  0  0  0  0  0  0  0
    4.0611   -0.1900    0.0000 H   0  0  0  0  0  0  0  0  0  0  0  0
    1.6900   -1.4631    0.0000 H   0  0  0  0  0  0  0  0  0  0  0  0
    1.4631   -2.3100    0.0000 H   0  0  0  0  0  0  0  0  0  0  0  0
    2.3100   -2.5369    0.0000 H   0  0  0  0  0  0  0  0  0  0  0  0
    7.7331   -0.3100    0.0000 H   0  0  0  0  0  0  0  0  0  0  0  0
    6.0010    4.3100    0.0000 H   0  0  0  0  0  0  0  0  0  0  0  0
    4.5981    1.8800    0.0000 H   0  0  0  0  0  0  0  0  0  0  0  0
    3.1951    4.3100    0.0000 H   0  0  0  0  0  0  0  0  0  0  0  0
    5.1350    5.8100    0.0000 H   0  0  0  0  0  0  0  0  0  0  0  0
    3.1951    2.6900    0.0000 H   0  0  0  0  0  0  0  0  0  0  0  0
    4.3426    6.8923    0.0000 H   0  0  0  0  0  0  0  0  0  0  0  0
    3.9441    7.5826    0.0000 H   0  0  0  0  0  0  0  0  0  0  0  0
    3.1760    8.0369    0.0000 H   0  0  0  0  0  0  0  0  0  0  0  0
    2.3291    7.8100    0.0000 H   0  0  0  0  0  0  0  0  0  0  0  0
    2.5560    6.9631    0.0000 H   0  0  0  0  0  0  0  0  0  0  0  0
  1 26  1  0  0  0  0
  2 19  1  0  0  0  0
  2 23  1  0  0  0  0
  3 24  1  0  0  0  0
  3 27  1  0  0  0  0
  4 34  2  0  0  0  0
  5 11  1  0  0  0  0
  5 12  1  0  0  0  0
  5 15  1  0  0  0  0
  6 13  1  0  0  0  0
  6 14  1  0  0  0  0
  6 16  1  0  0  0  0
  7 21  1  0  0  0  0
  7 22  1  0  0  0  0
  7 50  1  0  0  0  0
  8 22  1  0  0  0  0
  8 24  2  0  0  0  0
  9 22  2  0  0  0  0
  9 25  1  0  0  0  0
 10 28  1  0  0  0  0
 10 34  1  0  0  0  0
 10 58  1  0  0  0  0
 11 13  1  0  0  0  0
 11 36  1  0  0  0  0
 11 37  1  0  0  0  0
 12 14  1  0  0  0  0
 12 38  1  0  0  0  0
 12 39  1  0  0  0  0
 13 40  1  0  0  0  0
 13 41  1  0  0  0  0
 14 42  1  0  0  0  0
 14 43  1  0  0  0  0
 15 17  2  0  0  0  0
 15 18  1  0  0  0  0
 16 44  1  0  0  0  0
 16 45  1  0  0  0  0
 16 46  1  0  0  0  0
 17 19  1  0  0  0  0
 17 47  1  0  0  0  0
 18 20  2  0  0  0  0
 18 48  1  0  0  0  0
 19 21  2  0  0  0  0
 20 21  1  0  0  0  0
 20 49  1  0  0  0  0
 23 51  1  0  0  0  0
 23 52  1  0  0  0  0
 23 53  1  0  0  0  0
 24 26  1  0  0  0  0
 25 26  2  0  0  0  0
 25 54  1  0  0  0  0
 27 29  1  0  0  0  0
 27 30  2  0  0  0  0
 28 29  2  0  0  0  0
 28 31  1  0  0  0  0
 29 55  1  0  0  0  0
 30 32  1  0  0  0  0
 30 56  1  0  0  0  0
 31 32  2  0  0  0  0
 31 57  1  0  0  0  0
 32 59  1  0  0  0  0
 33 34  1  0  0  0  0
 33 35  1  0  0  0  0
 33 60  1  0  0  0  0
 33 61  1  0  0  0  0
 35 62  1  0  0  0  0
 35 63  1  0  0  0  0
 35 64  1  0  0  0  0
M  END
> <PUBCHEM_COMPOUND_CID>
72200024

> <PUBCHEM_COMPOUND_CANONICALIZED>
1

> <PUBCHEM_CACTVS_COMPLEXITY>
667

> <PUBCHEM_CACTVS_HBOND_ACCEPTOR>
8

> <PUBCHEM_CACTVS_HBOND_DONOR>
2

> <PUBCHEM_CACTVS_ROTATABLE_BOND>
8

> <PUBCHEM_CACTVS_SUBSKEYS>
AAADceB7sAAEAAAAAAAAAAAAAAAAAAAAAAA8eIEAAAAAAAAB0AAAHgIQAAAACA7BkiY/1pfIFACoADV3dACCiCkxI+AJ2CEvbZiObqPE+dvfPCju1BvY6CeQUAMAAACAAgAAEAAAAQAEAAAgAAAAAAAAAA==

> <PUBCHEM_IUPAC_OPENEYE_NAME>
N-[3-[5-chloro-2-[2-methoxy-4-(4-methylpiperazin-1-yl)anilino]pyrimidin-4-yl]oxyphenyl]propanamide

> <PUBCHEM_IUPAC_CAS_NAME>
N-[3-[[5-chloro-2-[2-methoxy-4-(4-methyl-1-piperazinyl)anilino]-4-pyrimidinyl]oxy]phenyl]propanamide

> <PUBCHEM_IUPAC_NAME_MARKUP>
<I>N</I>-[3-[5-chloro-2-[2-methoxy-4-(4-methylpiperazin-1-yl)anilino]pyrimidin-4-yl]oxyphenyl]propanamide

> <PUBCHEM_IUPAC_NAME>
N-[3-[5-chloro-2-[2-methoxy-4-(4-methylpiperazin-1-yl)anilino]pyrimidin-4-yl]oxyphenyl]propanamide

> <PUBCHEM_IUPAC_SYSTEMATIC_NAME>
N-[3-[5-chloranyl-2-[[2-methoxy-4-(4-methylpiperazin-1-yl)phenyl]amino]pyrimidin-4-yl]oxyphenyl]propanamide

> <PUBCHEM_IUPAC_TRADITIONAL_NAME>
N-[3-[5-chloro-2-[2-methoxy-4-(4-methylpiperazino)anilino]pyrimidin-4-yl]oxyphenyl]propionamide

> <PUBCHEM_IUPAC_INCHI>
InChI=1S/C25H29ClN6O3/c1-4-23(33)28-17-6-5-7-19(14-17)35-24-20(26)16-27-25(30-24)29-21-9-8-18(15-22(21)34-3)32-12-10-31(2)11-13-32/h5-9,14-16H,4,10-13H2,1-3H3,(H,28,33)(H,27,29,30)

> <PUBCHEM_IUPAC_INCHIKEY>
SDGJBAUIGHSMRI-UHFFFAOYSA-N

> <PUBCHEM_XLOGP3_AA>
4.1

> <PUBCHEM_EXACT_MASS>
496.198966

> <PUBCHEM_MOLECULAR_FORMULA>
C25H29ClN6O3

> <PUBCHEM_MOLECULAR_WEIGHT>
497

> <PUBCHEM_OPENEYE_CAN_SMILES>
CCC(=O)NC1=CC(=CC=C1)OC2=NC(=NC=C2Cl)NC3=C(C=C(C=C3)N4CCN(CC4)C)OC

> <PUBCHEM_OPENEYE_ISO_SMILES>
CCC(=O)NC1=CC(=CC=C1)OC2=NC(=NC=C2Cl)NC3=C(C=C(C=C3)N4CCN(CC4)C)OC

> <PUBCHEM_CACTVS_TPSA>
91.8

> <PUBCHEM_MONOISOTOPIC_WEIGHT>
496.198966

> <PUBCHEM_TOTAL_CHARGE>
0

> <PUBCHEM_HEAVY_ATOM_COUNT>
35

> <PUBCHEM_ATOM_DEF_STEREO_COUNT>
0

> <PUBCHEM_ATOM_UDEF_STEREO_COUNT>
0

> <PUBCHEM_BOND_DEF_STEREO_COUNT>
0

> <PUBCHEM_BOND_UDEF_STEREO_COUNT>
0

> <PUBCHEM_ISOTOPIC_ATOM_COUNT>
0

> <PUBCHEM_COMPONENT_COUNT>
1

> <PUBCHEM_CACTVS_TAUTO_COUNT>
-1

> <PUBCHEM_COORDINATE_TYPE>
1
5
255

> <PUBCHEM_BONDANNOTATIONS>
15  17  8
15  18  8
17  19  8
18  20  8
19  21  8
20  21  8
24  26  8
25  26  8
27  29  8
27  30  8
28  29  8
28  31  8
30  32  8
31  32  8
8  22  8
8  24  8
9  22  8
9  25  8

$$$$
9825149
  -OEChem-02182015172D

 65 70  0     0  0  0  0  0  0999 V2000
    7.2566    2.9869    0.0000 O   0  0  0  0  0  0  0  0  0  0  0  0
    4.6783   -0.9360    0.0000 N   0  0  0  0  0  0  0  0  0  0  0  0
    6.7174   -4.3875    0.0000 N   0  0  0  0  0  0  0  0  0  0  0  0
    2.8660   -1.1313    0.0000 N   0  0  0  0  0  0  0  0  0  0  0  0
    2.0000    0.3687    0.0000 N   0  0  0  0  0  0  0  0  0  0  0  0
    2.8660    1.8687    0.0000 N   0  0  0  0  0  0  0  0  0  0  0  0
    5.4283   -3.2308    0.0000 C   0  0  0  0  0  0  0  0  0  0  0  0
    4.9889   -1.8866    0.0000 C   0  0  0  0  0  0  0  0  0  0  0  0
    4.5365   -2.7784    0.0000 C   0  0  0  0  0  0  0  0  0  0  0  0
    5.8807   -2.3390    0.0000 C   0  0  0  0  0  0  0  0  0  0  0  0
    5.7389   -4.1813    0.0000 C   0  0  0  0  0  0  0  0  0  0  0  0
    7.4594   -3.7171    0.0000 C   0  0  0  0  0  0  0  0  0  0  0  0
    7.1258   -5.3004    0.0000 C   0  0  0  0  0  0  0  0  0  0  0  0
    8.3263   -4.2156    0.0000 C   0  0  0  0  0  0  0  0  0  0  0  0
    8.1201   -5.1941    0.0000 C   0  0  0  0  0  0  0  0  0  0  0  0
    3.7320   -0.6313    0.0000 C   0  0  0  0  0  0  0  0  0  0  0  0
    5.2619   -0.1313    0.0000 C   0  0  0  0  0  0  0  0  0  0  0  0
    3.7320    0.3687    0.0000 C   0  0  0  0  0  0  0  0  0  0  0  0
    4.6783    0.6734    0.0000 C   0  0  0  0  0  0  0  0  0  0  0  0
    2.8660    0.8687    0.0000 C   0  0  0  0  0  0  0  0  0  0  0  0
    4.9889    1.6239    0.0000 C   0  0  0  0  0  0  0  0  0  0  0  0
    2.0000   -0.6313    0.0000 C   0  0  0  0  0  0  0  0  0  0  0  0
    5.9674    1.8302    0.0000 C   0  0  0  0  0  0  0  0  0  0  0  0
    4.3211    2.3683    0.0000 C   0  0  0  0  0  0  0  0  0  0  0  0
    6.2781    2.7807    0.0000 C   0  0  0  0  0  0  0  0  0  0  0  0
    4.6318    3.3188    0.0000 C   0  0  0  0  0  0  0  0  0  0  0  0
    5.6103    3.5250    0.0000 C   0  0  0  0  0  0  0  0  0  0  0  0
    7.5673    3.9374    0.0000 C   0  0  0  0  0  0  0  0  0  0  0  0
    8.5458    4.1436    0.0000 C   0  0  0  0  0  0  0  0  0  0  0  0
    9.2136    3.3993    0.0000 C   0  0  0  0  0  0  0  0  0  0  0  0
    8.8564    5.0942    0.0000 C   0  0  0  0  0  0  0  0  0  0  0  0
   10.1921    3.6056    0.0000 C   0  0  0  0  0  0  0  0  0  0  0  0
    9.8349    5.3004    0.0000 C   0  0  0  0  0  0  0  0  0  0  0  0
   10.5028    4.5561    0.0000 C   0  0  0  0  0  0  0  0  0  0  0  0
    6.0464   -3.2784    0.0000 H   0  0  0  0  0  0  0  0  0  0  0  0
    5.4597   -1.4831    0.0000 H   0  0  0  0  0  0  0  0  0  0  0  0
    3.9836   -2.4978    0.0000 H   0  0  0  0  0  0  0  0  0  0  0  0
    4.2560   -3.3313    0.0000 H   0  0  0  0  0  0  0  0  0  0  0  0
    6.4336   -2.6195    0.0000 H   0  0  0  0  0  0  0  0  0  0  0  0
    6.1612   -1.7861    0.0000 H   0  0  0  0  0  0  0  0  0  0  0  0
    5.1251   -4.2687    0.0000 H   0  0  0  0  0  0  0  0  0  0  0  0
    5.7184   -4.8010    0.0000 H   0  0  0  0  0  0  0  0  0  0  0  0
    7.8230   -3.2149    0.0000 H   0  0  0  0  0  0  0  0  0  0  0  0
    6.9980   -3.3031    0.0000 H   0  0  0  0  0  0  0  0  0  0  0  0
    6.5364   -5.4930    0.0000 H   0  0  0  0  0  0  0  0  0  0  0  0
    7.2557   -5.9066    0.0000 H   0  0  0  0  0  0  0  0  0  0  0  0
    8.9163   -4.4062    0.0000 H   0  0  0  0  0  0  0  0  0  0  0  0
    8.5775   -3.6488    0.0000 H   0  0  0  0  0  0  0  0  0  0  0  0
    8.1212   -5.8141    0.0000 H   0  0  0  0  0  0  0  0  0  0  0  0
    8.7368   -5.2579    0.0000 H   0  0  0  0  0  0  0  0  0  0  0  0
    5.8819   -0.1313    0.0000 H   0  0  0  0  0  0  0  0  0  0  0  0
    1.4631   -0.9413    0.0000 H   0  0  0  0  0  0  0  0  0  0  0  0
    6.3815    1.3687    0.0000 H   0  0  0  0  0  0  0  0  0  0  0  0
    3.7144    2.2404    0.0000 H   0  0  0  0  0  0  0  0  0  0  0  0
    2.3291    2.1787    0.0000 H   0  0  0  0  0  0  0  0  0  0  0  0
    3.4030    2.1787    0.0000 H   0  0  0  0  0  0  0  0  0  0  0  0
    4.2177    3.7802    0.0000 H   0  0  0  0  0  0  0  0  0  0  0  0
    5.8029    4.1143    0.0000 H   0  0  0  0  0  0  0  0  0  0  0  0
    7.5467    4.5571    0.0000 H   0  0  0  0  0  0  0  0  0  0  0  0
    6.9534    4.0248    0.0000 H   0  0  0  0  0  0  0  0  0  0  0  0
    9.0210    2.8100    0.0000 H   0  0  0  0  0  0  0  0  0  0  0  0
    8.4424    5.5556    0.0000 H   0  0  0  0  0  0  0  0  0  0  0  0
   10.6062    3.1441    0.0000 H   0  0  0  0  0  0  0  0  0  0  0  0
   10.0276    5.8897    0.0000 H   0  0  0  0  0  0  0  0  0  0  0  0
   11.1095    4.6839    0.0000 H   0  0  0  0  0  0  0  0  0  0  0  0
  1 25  1  0  0  0  0
  1 28  1  0  0  0  0
  2  8  1  0  0  0  0
  2 16  1  0  0  0  0
  2 17  1  0  0  0  0
  3 11  1  0  0  0  0
  3 12  1  0  0  0  0
  3 13  1  0  0  0  0
  4 16  2  0  0  0  0
  4 22  1  0  0  0  0
  5 20  1  0  0  0  0
  5 22  2  0  0  0  0
  6 20  1  0  0  0  0
  6 55  1  0  0  0  0
  6 56  1  0  0  0  0
  7  9  1  0  0  0  0
  7 10  1  0  0  0  0
  7 11  1  0  0  0  0
  7 35  1  0  0  0  0
  8  9  1  0  0  0  0
  8 10  1  0  0  0  0
  8 36  1  0  0  0  0
  9 37  1  0  0  0  0
  9 38  1  0  0  0  0
 10 39  1  0  0  0  0
 10 40  1  0  0  0  0
 11 41  1  0  0  0  0
 11 42  1  0  0  0  0
 12 14  1  0  0  0  0
 12 43  1  0  0  0  0
 12 44  1  0  0  0  0
 13 15  1  0  0  0  0
 13 45  1  0  0  0  0
 13 46  1  0  0  0  0
 14 15  1  0  0  0  0
 14 47  1  0  0  0  0
 14 48  1  0  0  0  0
 15 49  1  0  0  0  0
 15 50  1  0  0  0  0
 16 18  1  0  0  0  0
 17 19  2  0  0  0  0
 17 51  1  0  0  0  0
 18 19  1  0  0  0  0
 18 20  2  0  0  0  0
 19 21  1  0  0  0  0
 21 23  2  0  0  0  0
 21 24  1  0  0  0  0
 22 52  1  0  0  0  0
 23 25  1  0  0  0  0
 23 53  1  0  0  0  0
 24 26  2  0  0  0  0
 24 54  1  0  0  0  0
 25 27  2  0  0  0  0
 26 27  1  0  0  0  0
 26 57  1  0  0  0  0
 27 58  1  0  0  0  0
 28 29  1  0  0  0  0
 28 59  1  0  0  0  0
 28 60  1  0  0  0  0
 29 30  2  0  0  0  0
 29 31  1  0  0  0  0
 30 32  1  0  0  0  0
 30 61  1  0  0  0  0
 31 33  2  0  0  0  0
 31 62  1  0  0  0  0
 32 34  2  0  0  0  0
 32 63  1  0  0  0  0
 33 34  1  0  0  0  0
 33 64  1  0  0  0  0
 34 65  1  0  0  0  0
M  END
> <PUBCHEM_COMPOUND_CID>
9825149

> <PUBCHEM_COMPOUND_CANONICALIZED>
1

> <PUBCHEM_CACTVS_COMPLEXITY>
645

> <PUBCHEM_CACTVS_HBOND_ACCEPTOR>
5

> <PUBCHEM_CACTVS_HBOND_DONOR>
1

> <PUBCHEM_CACTVS_ROTATABLE_BOND>
7

> <PUBCHEM_CACTVS_SUBSKEYS>
AAADceB7oAAAAAAAAAAAAAAAAABgAWLAAAA8YIAAAAAAAFgB/AAAHgAQAAAADSzhmwY9tt9MFACgAjJnZACCiCkxIKAJ2CAuTJiMLmLE+duGPCjswBPI6CeQ0PIOgAABAAAAAAAAAAIAAAAAAAAAAAAAAA==

> <PUBCHEM_IUPAC_OPENEYE_NAME>
5-(3-benzyloxyphenyl)-7-[3-(pyrrolidin-1-ylmethyl)cyclobutyl]pyrrolo[2,3-d]pyrimidin-4-amine

> <PUBCHEM_IUPAC_CAS_NAME>
5-(3-phenylmethoxyphenyl)-7-[3-(1-pyrrolidinylmethyl)cyclobutyl]-4-pyrrolo[2,3-d]pyrimidinamine

> <PUBCHEM_IUPAC_NAME_MARKUP>
5-(3-phenylmethoxyphenyl)-7-[3-(pyrrolidin-1-ylmethyl)cyclobutyl]pyrrolo[2,3-d]pyrimidin-4-amine

> <PUBCHEM_IUPAC_NAME>
5-(3-phenylmethoxyphenyl)-7-[3-(pyrrolidin-1-ylmethyl)cyclobutyl]pyrrolo[2,3-d]pyrimidin-4-amine

> <PUBCHEM_IUPAC_SYSTEMATIC_NAME>
5-(3-phenylmethoxyphenyl)-7-[3-(pyrrolidin-1-ylmethyl)cyclobutyl]pyrrolo[2,3-d]pyrimidin-4-amine

> <PUBCHEM_IUPAC_TRADITIONAL_NAME>
[5-(3-benzoxyphenyl)-7-[3-(pyrrolidinomethyl)cyclobutyl]pyrrolo[2,3-d]pyrimidin-4-yl]amine

> <PUBCHEM_IUPAC_INCHI>
InChI=1S/C28H31N5O/c29-27-26-25(22-9-6-10-24(15-22)34-18-20-7-2-1-3-8-20)17-33(28(26)31-19-30-27)23-13-21(14-23)16-32-11-4-5-12-32/h1-3,6-10,15,17,19,21,23H,4-5,11-14,16,18H2,(H2,29,30,31)

> <PUBCHEM_IUPAC_INCHIKEY>
LSFLAQVDISHMNB-UHFFFAOYSA-N

> <PUBCHEM_XLOGP3_AA>
4.6

> <PUBCHEM_EXACT_MASS>
453.252861

> <PUBCHEM_MOLECULAR_FORMULA>
C28H31N5O

> <PUBCHEM_MOLECULAR_WEIGHT>
453.6

> <PUBCHEM_OPENEYE_CAN_SMILES>
C1CCN(C1)CC2CC(C2)N3C=C(C4=C(N=CN=C43)N)C5=CC(=CC=C5)OCC6=CC=CC=C6

> <PUBCHEM_OPENEYE_ISO_SMILES>
C1CCN(C1)CC2CC(C2)N3C=C(C4=C(N=CN=C43)N)C5=CC(=CC=C5)OCC6=CC=CC=C6

> <PUBCHEM_CACTVS_TPSA>
69.2

> <PUBCHEM_MONOISOTOPIC_WEIGHT>
453.252861

> <PUBCHEM_TOTAL_CHARGE>
0

> <PUBCHEM_HEAVY_ATOM_COUNT>
34

> <PUBCHEM_ATOM_DEF_STEREO_COUNT>
0

> <PUBCHEM_ATOM_UDEF_STEREO_COUNT>
0

> <PUBCHEM_BOND_DEF_STEREO_COUNT>
0

> <PUBCHEM_BOND_UDEF_STEREO_COUNT>
0

> <PUBCHEM_ISOTOPIC_ATOM_COUNT>
0

> <PUBCHEM_COMPONENT_COUNT>
1

> <PUBCHEM_CACTVS_TAUTO_COUNT>
-1

> <PUBCHEM_COORDINATE_TYPE>
1
5
255

> <PUBCHEM_BONDANNOTATIONS>
16  18  8
17  19  8
18  19  8
18  20  8
2  16  8
2  17  8
21  23  8
21  24  8
23  25  8
24  26  8
25  27  8
26  27  8
29  30  8
29  31  8
30  32  8
31  33  8
32  34  8
33  34  8
4  16  8
4  22  8
5  20  8
5  22  8

$$$$
49847690
  -OEChem-02182015172D

152159  0     1  0  0  0  0  0999 V2000
    4.9970    2.5429    0.0000 O   0  0  0  0  0  0  0  0  0  0  0  0
   13.0454   -4.2217    0.0000 O   0  0  0  0  0  0  0  0  0  0  0  0
    7.0687   -0.3157    0.0000 O   0  0  0  0  0  0  0  0  0  0  0  0
   13.0687   -2.0478    0.0000 O   0  0  0  0  0  0  0  0  0  0  0  0
    7.4421    0.9015    0.0000 O   0  0  0  0  0  0  0  0  0  0  0  0
   15.9880   -4.3411    0.0000 O   0  0  0  0  0  0  0  0  0  0  0  0
    4.0030    6.0087    0.0000 O   0  0  0  0  0  0  0  0  0  0  0  0
   10.1965   -6.4315    0.0000 O   0  0  0  0  0  0  0  0  0  0  0  0
    6.4985    3.4063    0.0000 N   0  0  0  0  0  0  0  0  0  0  0  0
   13.7472   -5.8052    0.0000 N   0  0  0  0  0  0  0  0  0  0  0  0
    5.5015    5.1401    0.0000 N   0  0  0  0  0  0  0  0  0  0  0  0
   11.2170   -5.0320    0.0000 N   0  0  0  0  0  0  0  0  0  0  0  0
    5.7957    1.4396    0.0000 N   0  0  0  0  0  0  0  0  0  0  0  0
   14.3416   -3.8030    0.0000 N   0  0  0  0  0  0  0  0  0  0  0  0
    5.0060    7.7390    0.0000 N   0  0  0  0  0  0  0  0  0  0  0  0
    8.5805   -5.2531    0.0000 N   0  0  0  0  0  0  0  0  0  0  0  0
    4.0000    4.2767    0.0000 C   0  0  0  0  0  0  0  0  0  0  0  0
   11.9187   -6.6155    0.0000 C   0  0  0  0  0  0  0  0  0  0  0  0
    5.0000    4.2749    0.0000 C   0  0  1  0  0  0  0  0  0  0  0  0
   12.0249   -5.6212    0.0000 C   0  0  1  0  0  0  0  0  0  0  0  0
    3.5015    5.1436    0.0000 C   0  0  0  0  0  0  0  0  0  0  0  0
    3.4985    3.4115    0.0000 C   0  0  0  0  0  0  0  0  0  0  0  0
   11.0045   -7.0207    0.0000 C   0  0  0  0  0  0  0  0  0  0  0  0
   12.7267   -7.2047    0.0000 C   0  0  0  0  0  0  0  0  0  0  0  0
    2.5015    5.1453    0.0000 C   0  0  0  0  0  0  0  0  0  0  0  0
    2.4985    3.4132    0.0000 C   0  0  0  0  0  0  0  0  0  0  0  0
   10.8982   -8.0150    0.0000 C   0  0  0  0  0  0  0  0  0  0  0  0
   12.6204   -8.1990    0.0000 C   0  0  0  0  0  0  0  0  0  0  0  0
    7.0849    2.5963    0.0000 C   0  0  1  0  0  0  0  0  0  0  0  0
   14.6988   -5.4978    0.0000 C   0  0  1  0  0  0  0  0  0  0  0  0
    2.0000    4.2801    0.0000 C   0  0  0  0  0  0  0  0  0  0  0  0
   11.7062   -8.6042    0.0000 C   0  0  0  0  0  0  0  0  0  0  0  0
    5.4985    3.4080    0.0000 C   0  0  0  0  0  0  0  0  0  0  0  0
   12.9392   -5.2160    0.0000 C   0  0  0  0  0  0  0  0  0  0  0  0
    8.0365    2.9037    0.0000 C   0  0  0  0  0  0  0  0  0  0  0  0
   15.2852   -6.3079    0.0000 C   0  0  0  0  0  0  0  0  0  0  0  0
    7.0877    4.2143    0.0000 C   0  0  0  0  0  0  0  0  0  0  0  0
   13.7455   -6.8052    0.0000 C   0  0  0  0  0  0  0  0  0  0  0  0
    8.0382    3.9036    0.0000 C   0  0  0  0  0  0  0  0  0  0  0  0
   14.6960   -7.1159    0.0000 C   0  0  0  0  0  0  0  0  0  0  0  0
    6.7742    1.6458    0.0000 C   0  0  0  0  0  0  0  0  0  0  0  0
   15.0094   -4.5473    0.0000 C   0  0  0  0  0  0  0  0  0  0  0  0
    5.4850    0.4890    0.0000 C   0  0  2  0  0  0  0  0  0  0  0  0
   14.6523   -2.8525    0.0000 C   0  0  2  0  0  0  0  0  0  0  0  0
    6.0687   -0.3157    0.0000 C   0  0  1  0  0  0  0  0  0  0  0  0
   14.0687   -2.0478    0.0000 C   0  0  1  0  0  0  0  0  0  0  0  0
    4.5388    0.1843    0.0000 C   0  0  0  0  0  0  0  0  0  0  0  0
   15.5985   -2.5478    0.0000 C   0  0  0  0  0  0  0  0  0  0  0  0
    5.4850   -1.1204    0.0000 C   0  0  0  0  0  0  0  0  0  0  0  0
   14.6523   -1.2430    0.0000 C   0  0  0  0  0  0  0  0  0  0  0  0
    5.0030    6.0070    0.0000 C   0  0  0  0  0  0  0  0  0  0  0  0
   10.3027   -5.4371    0.0000 C   0  0  0  0  0  0  0  0  0  0  0  0
    4.5388   -0.8157    0.0000 C   0  0  0  0  0  0  0  0  0  0  0  0
   15.5985   -1.5478    0.0000 C   0  0  0  0  0  0  0  0  0  0  0  0
    5.5045    6.8721    0.0000 C   0  0  2  0  0  0  0  0  0  0  0  0
    9.4947   -4.8480    0.0000 C   0  0  2  0  0  0  0  0  0  0  0  0
    3.6728    0.6843    0.0000 C   0  0  0  0  0  0  0  0  0  0  0  0
   16.4645   -3.0478    0.0000 C   0  0  0  0  0  0  0  0  0  0  0  0
    3.6728   -1.3157    0.0000 C   0  0  0  0  0  0  0  0  0  0  0  0
   16.4645   -1.0478    0.0000 C   0  0  0  0  0  0  0  0  0  0  0  0
    6.5045    6.8704    0.0000 C   0  0  0  0  0  0  0  0  0  0  0  0
    9.6009   -3.8536    0.0000 C   0  0  0  0  0  0  0  0  0  0  0  0
    2.8068    0.1843    0.0000 C   0  0  0  0  0  0  0  0  0  0  0  0
   17.3305   -2.5478    0.0000 C   0  0  0  0  0  0  0  0  0  0  0  0
    2.8068   -0.8157    0.0000 C   0  0  0  0  0  0  0  0  0  0  0  0
   17.3305   -1.5478    0.0000 C   0  0  0  0  0  0  0  0  0  0  0  0
    7.5687   -1.1817    0.0000 C   0  0  0  0  0  0  0  0  0  0  0  0
   12.5687   -1.1817    0.0000 C   0  0  0  0  0  0  0  0  0  0  0  0
    5.5075    8.6042    0.0000 C   0  0  0  0  0  0  0  0  0  0  0  0
    7.7725   -4.6639    0.0000 C   0  0  0  0  0  0  0  0  0  0  0  0
    8.5687   -1.1817    0.0000 C   0  0  0  0  0  0  0  0  0  0  0  0
   11.5687   -1.1817    0.0000 C   0  0  0  0  0  0  0  0  0  0  0  0
    9.5687   -1.1817    0.0000 C   0  0  0  0  0  0  0  0  0  0  0  0
   10.5687   -1.1817    0.0000 C   0  0  0  0  0  0  0  0  0  0  0  0
    4.3109    4.8131    0.0000 H   0  0  0  0  0  0  0  0  0  0  0  0
   12.4855   -6.3643    0.0000 H   0  0  0  0  0  0  0  0  0  0  0  0
    5.6200    4.2739    0.0000 H   0  0  0  0  0  0  0  0  0  0  0  0
   11.4581   -5.8724    0.0000 H   0  0  0  0  0  0  0  0  0  0  0  0
    4.0845    5.3546    0.0000 H   0  0  0  0  0  0  0  0  0  0  0  0
    3.3949    5.7543    0.0000 H   0  0  0  0  0  0  0  0  0  0  0  0
    3.3898    2.8011    0.0000 H   0  0  0  0  0  0  0  0  0  0  0  0
    4.0807    3.1984    0.0000 H   0  0  0  0  0  0  0  0  0  0  0  0
   10.8555   -6.4188    0.0000 H   0  0  0  0  0  0  0  0  0  0  0  0
   10.3859   -7.0628    0.0000 H   0  0  0  0  0  0  0  0  0  0  0  0
   13.3224   -7.3766    0.0000 H   0  0  0  0  0  0  0  0  0  0  0  0
   12.9995   -6.6479    0.0000 H   0  0  0  0  0  0  0  0  0  0  0  0
    2.6102    5.7557    0.0000 H   0  0  0  0  0  0  0  0  0  0  0  0
    1.9193    5.3584    0.0000 H   0  0  0  0  0  0  0  0  0  0  0  0
    1.9155    3.2022    0.0000 H   0  0  0  0  0  0  0  0  0  0  0  0
    2.6051    2.8025    0.0000 H   0  0  0  0  0  0  0  0  0  0  0  0
   10.3025   -7.8431    0.0000 H   0  0  0  0  0  0  0  0  0  0  0  0
   10.6254   -8.5718    0.0000 H   0  0  0  0  0  0  0  0  0  0  0  0
   12.7694   -8.8009    0.0000 H   0  0  0  0  0  0  0  0  0  0  0  0
   13.2390   -8.1569    0.0000 H   0  0  0  0  0  0  0  0  0  0  0  0
    6.4723    2.5004    0.0000 H   0  0  0  0  0  0  0  0  0  0  0  0
   14.2611   -5.0587    0.0000 H   0  0  0  0  0  0  0  0  0  0  0  0
    1.5257    4.6795    0.0000 H   0  0  0  0  0  0  0  0  0  0  0  0
    1.5244    3.8824    0.0000 H   0  0  0  0  0  0  0  0  0  0  0  0
   11.2595   -9.0341    0.0000 H   0  0  0  0  0  0  0  0  0  0  0  0
   12.0520   -9.1188    0.0000 H   0  0  0  0  0  0  0  0  0  0  0  0
    8.1643    2.2970    0.0000 H   0  0  0  0  0  0  0  0  0  0  0  0
    8.6532    2.9674    0.0000 H   0  0  0  0  0  0  0  0  0  0  0  0
   15.7452   -6.7235    0.0000 H   0  0  0  0  0  0  0  0  0  0  0  0
   15.7466   -5.8938    0.0000 H   0  0  0  0  0  0  0  0  0  0  0  0
    7.3408    4.7803    0.0000 H   0  0  0  0  0  0  0  0  0  0  0  0
    6.5513    4.5252    0.0000 H   0  0  0  0  0  0  0  0  0  0  0  0
   13.1290   -6.7393    0.0000 H   0  0  0  0  0  0  0  0  0  0  0  0
   13.6155   -7.4114    0.0000 H   0  0  0  0  0  0  0  0  0  0  0  0
    8.6547    3.8378    0.0000 H   0  0  0  0  0  0  0  0  0  0  0  0
    8.1682    4.5099    0.0000 H   0  0  0  0  0  0  0  0  0  0  0  0
   14.4428   -7.6818    0.0000 H   0  0  0  0  0  0  0  0  0  0  0  0
   15.2324   -7.4268    0.0000 H   0  0  0  0  0  0  0  0  0  0  0  0
    6.1215    5.1390    0.0000 H   0  0  0  0  0  0  0  0  0  0  0  0
   11.2828   -4.4155    0.0000 H   0  0  0  0  0  0  0  0  0  0  0  0
    5.0476    0.9284    0.0000 H   0  0  0  0  0  0  0  0  0  0  0  0
   14.0398   -2.9487    0.0000 H   0  0  0  0  0  0  0  0  0  0  0  0
    6.3504   -0.8680    0.0000 H   0  0  0  0  0  0  0  0  0  0  0  0
   13.7869   -1.4955    0.0000 H   0  0  0  0  0  0  0  0  0  0  0  0
    5.3816    1.9010    0.0000 H   0  0  0  0  0  0  0  0  0  0  0  0
   13.7349   -3.9309    0.0000 H   0  0  0  0  0  0  0  0  0  0  0  0
    5.2340   -1.6874    0.0000 H   0  0  0  0  0  0  0  0  0  0  0  0
    6.0224   -1.4297    0.0000 H   0  0  0  0  0  0  0  0  0  0  0  0
   14.9033   -0.6761    0.0000 H   0  0  0  0  0  0  0  0  0  0  0  0
   14.1149   -0.9338    0.0000 H   0  0  0  0  0  0  0  0  0  0  0  0
    5.8154    7.4085    0.0000 H   0  0  0  0  0  0  0  0  0  0  0  0
    9.4288   -5.4644    0.0000 H   0  0  0  0  0  0  0  0  0  0  0  0
    3.6728    1.3043    0.0000 H   0  0  0  0  0  0  0  0  0  0  0  0
   16.4645   -3.6678    0.0000 H   0  0  0  0  0  0  0  0  0  0  0  0
    3.6728   -1.9357    0.0000 H   0  0  0  0  0  0  0  0  0  0  0  0
   16.4645   -0.4278    0.0000 H   0  0  0  0  0  0  0  0  0  0  0  0
    6.5034    6.2504    0.0000 H   0  0  0  0  0  0  0  0  0  0  0  0
    7.1245    6.8693    0.0000 H   0  0  0  0  0  0  0  0  0  0  0  0
    6.5056    7.4904    0.0000 H   0  0  0  0  0  0  0  0  0  0  0  0
   10.2174   -3.9195    0.0000 H   0  0  0  0  0  0  0  0  0  0  0  0
    9.6668   -3.2371    0.0000 H   0  0  0  0  0  0  0  0  0  0  0  0
    8.9845   -3.7878    0.0000 H   0  0  0  0  0  0  0  0  0  0  0  0
    2.2698    0.4943    0.0000 H   0  0  0  0  0  0  0  0  0  0  0  0
   17.8675   -2.8578    0.0000 H   0  0  0  0  0  0  0  0  0  0  0  0
    2.2698   -1.1257    0.0000 H   0  0  0  0  0  0  0  0  0  0  0  0
   17.8675   -1.2378    0.0000 H   0  0  0  0  0  0  0  0  0  0  0  0
    4.3860    7.7401    0.0000 H   0  0  0  0  0  0  0  0  0  0  0  0
    8.5146   -5.8696    0.0000 H   0  0  0  0  0  0  0  0  0  0  0  0
    6.9860   -1.3938    0.0000 H   0  0  0  0  0  0  0  0  0  0  0  0
    7.6763   -1.7923    0.0000 H   0  0  0  0  0  0  0  0  0  0  0  0
   13.1513   -0.9697    0.0000 H   0  0  0  0  0  0  0  0  0  0  0  0
   12.4610   -0.5712    0.0000 H   0  0  0  0  0  0  0  0  0  0  0  0
    6.0439    8.2933    0.0000 H   0  0  0  0  0  0  0  0  0  0  0  0
    5.8184    9.1406    0.0000 H   0  0  0  0  0  0  0  0  0  0  0  0
    4.9711    8.9151    0.0000 H   0  0  0  0  0  0  0  0  0  0  0  0
    8.1378   -4.1630    0.0000 H   0  0  0  0  0  0  0  0  0  0  0  0
    7.2715   -4.2986    0.0000 H   0  0  0  0  0  0  0  0  0  0  0  0
    7.4072   -5.1649    0.0000 H   0  0  0  0  0  0  0  0  0  0  0  0
  1 33  2  0  0  0  0
  2 34  2  0  0  0  0
 45  3  1  6  0  0  0
  3 67  1  0  0  0  0
 46  4  1  6  0  0  0
  4 68  1  0  0  0  0
  5 41  2  0  0  0  0
  6 42  2  0  0  0  0
  7 51  2  0  0  0  0
  8 52  2  0  0  0  0
  9 29  1  0  0  0  0
  9 33  1  0  0  0  0
  9 37  1  0  0  0  0
 10 30  1  0  0  0  0
 10 34  1  0  0  0  0
 10 38  1  0  0  0  0
 19 11  1  6  0  0  0
 11 51  1  0  0  0  0
 11113  1  0  0  0  0
 20 12  1  6  0  0  0
 12 52  1  0  0  0  0
 12114  1  0  0  0  0
 13 41  1  0  0  0  0
 43 13  1  6  0  0  0
 13119  1  0  0  0  0
 14 42  1  0  0  0  0
 44 14  1  6  0  0  0
 14120  1  0  0  0  0
 55 15  1  1  0  0  0
 15 69  1  0  0  0  0
 15141  1  0  0  0  0
 56 16  1  1  0  0  0
 16 70  1  0  0  0  0
 16142  1  0  0  0  0
 17 19  1  0  0  0  0
 17 21  1  0  0  0  0
 17 22  1  0  0  0  0
 17 75  1  0  0  0  0
 18 20  1  0  0  0  0
 18 23  1  0  0  0  0
 18 24  1  0  0  0  0
 18 76  1  0  0  0  0
 19 33  1  0  0  0  0
 19 77  1  0  0  0  0
 20 34  1  0  0  0  0
 20 78  1  0  0  0  0
 21 25  1  0  0  0  0
 21 79  1  0  0  0  0
 21 80  1  0  0  0  0
 22 26  1  0  0  0  0
 22 81  1  0  0  0  0
 22 82  1  0  0  0  0
 23 27  1  0  0  0  0
 23 83  1  0  0  0  0
 23 84  1  0  0  0  0
 24 28  1  0  0  0  0
 24 85  1  0  0  0  0
 24 86  1  0  0  0  0
 25 31  1  0  0  0  0
 25 87  1  0  0  0  0
 25 88  1  0  0  0  0
 26 31  1  0  0  0  0
 26 89  1  0  0  0  0
 26 90  1  0  0  0  0
 27 32  1  0  0  0  0
 27 91  1  0  0  0  0
 27 92  1  0  0  0  0
 28 32  1  0  0  0  0
 28 93  1  0  0  0  0
 28 94  1  0  0  0  0
 29 35  1  0  0  0  0
 29 41  1  1  0  0  0
 29 95  1  0  0  0  0
 30 36  1  0  0  0  0
 30 42  1  6  0  0  0
 30 96  1  0  0  0  0
 31 97  1  0  0  0  0
 31 98  1  0  0  0  0
 32 99  1  0  0  0  0
 32100  1  0  0  0  0
 35 39  1  0  0  0  0
 35101  1  0  0  0  0
 35102  1  0  0  0  0
 36 40  1  0  0  0  0
 36103  1  0  0  0  0
 36104  1  0  0  0  0
 37 39  1  0  0  0  0
 37105  1  0  0  0  0
 37106  1  0  0  0  0
 38 40  1  0  0  0  0
 38107  1  0  0  0  0
 38108  1  0  0  0  0
 39109  1  0  0  0  0
 39110  1  0  0  0  0
 40111  1  0  0  0  0
 40112  1  0  0  0  0
 43 45  1  0  0  0  0
 43 47  1  0  0  0  0
 43115  1  0  0  0  0
 44 46  1  0  0  0  0
 44 48  1  0  0  0  0
 44116  1  0  0  0  0
 45 49  1  0  0  0  0
 45117  1  0  0  0  0
 46 50  1  0  0  0  0
 46118  1  0  0  0  0
 47 53  1  0  0  0  0
 47 57  2  0  0  0  0
 48 54  1  0  0  0  0
 48 58  2  0  0  0  0
 49 53  1  0  0  0  0
 49121  1  0  0  0  0
 49122  1  0  0  0  0
 50 54  1  0  0  0  0
 50123  1  0  0  0  0
 50124  1  0  0  0  0
 51 55  1  0  0  0  0
 52 56  1  0  0  0  0
 53 59  2  0  0  0  0
 54 60  2  0  0  0  0
 55 61  1  0  0  0  0
 55125  1  0  0  0  0
 56 62  1  0  0  0  0
 56126  1  0  0  0  0
 57 63  1  0  0  0  0
 57127  1  0  0  0  0
 58 64  1  0  0  0  0
 58128  1  0  0  0  0
 59 65  1  0  0  0  0
 59129  1  0  0  0  0
 60 66  1  0  0  0  0
 60130  1  0  0  0  0
 61131  1  0  0  0  0
 61132  1  0  0  0  0
 61133  1  0  0  0  0
 62134  1  0  0  0  0
 62135  1  0  0  0  0
 62136  1  0  0  0  0
 63 65  2  0  0  0  0
 63137  1  0  0  0  0
 64 66  2  0  0  0  0
 64138  1  0  0  0  0
 65139  1  0  0  0  0
 66140  1  0  0  0  0
 67 71  1  0  0  0  0
 67143  1  0  0  0  0
 67144  1  0  0  0  0
 68 72  1  0  0  0  0
 68145  1  0  0  0  0
 68146  1  0  0  0  0
 69147  1  0  0  0  0
 69148  1  0  0  0  0
 69149  1  0  0  0  0
 70150  1  0  0  0  0
 70151  1  0  0  0  0
 70152  1  0  0  0  0
 71 73  3  0  0  0  0
 72 74  3  0  0  0  0
 73 74  1  0  0  0  0
M  END
> <PUBCHEM_COMPOUND_CID>
49847690

> <PUBCHEM_COMPOUND_CANONICALIZED>
1

> <PUBCHEM_CACTVS_COMPLEXITY>
1950

> <PUBCHEM_CACTVS_HBOND_ACCEPTOR>
10

> <PUBCHEM_CACTVS_HBOND_DONOR>
6

> <PUBCHEM_CACTVS_ROTATABLE_BOND>
19

> <PUBCHEM_CACTVS_SUBSKEYS>
AAADcfB//AAAAAAAAAAAAAAAAAAAAePECAAwYMGAAAAAAGABQAAAHgAQAAAADTzhmAYyAIPABADIEiFSEACCAAAgAAAIiIGIBIgKYDKAkTGXIAhk1gGYiAeY2aKOgAAAAAAQAAAAAAAAACAAAKAACQgAAA==

> <PUBCHEM_IUPAC_OPENEYE_NAME>
(2S)-1-[(2S)-2-cyclohexyl-2-[[(2S)-2-(methylamino)propanoyl]amino]acetyl]-N-[(1S,2R)-2-[6-[(1S,2R)-1-[[(2S)-1-[(2S)-2-cyclohexyl-2-[[(2S)-2-(methylamino)propanoyl]amino]acetyl]pyrrolidine-2-carbonyl]amino]indan-2-yl]oxyhexa-2,4-diynoxy]indan-1-yl]pyrrolidine-2-carboxamide

> <PUBCHEM_IUPAC_CAS_NAME>
(2S)-1-[(2S)-2-cyclohexyl-2-[[(2S)-2-(methylamino)-1-oxopropyl]amino]-1-oxoethyl]-N-[(1S,2R)-2-[6-[[(1S,2R)-1-[[[(2S)-1-[(2S)-2-cyclohexyl-2-[[(2S)-2-(methylamino)-1-oxopropyl]amino]-1-oxoethyl]-2-pyrrolidinyl]-oxomethyl]amino]-2,3-dihydro-1H-inden-2-yl]oxy]hexa-2,4-diynoxy]-2,3-dihydro-1H-inden-1-yl]-2-pyrrolidinecarboxamide

> <PUBCHEM_IUPAC_NAME_MARKUP>
(2<I>S</I>)-1-[(2<I>S</I>)-2-cyclohexyl-2-[[(2<I>S</I>)-2-(methylamino)propanoyl]amino]acetyl]-<I>N</I>-[(1<I>S</I>,2<I>R</I>)-2-[6-[[(1<I>S</I>,2<I>R</I>)-1-[[(2<I>S</I>)-1-[(2<I>S</I>)-2-cyclohexyl-2-[[(2<I>S</I>)-2-(methylamino)propanoyl]amino]acetyl]pyrrolidine-2-carbonyl]amino]-2,3-dihydro-1<I>H</I>-inden-2-yl]oxy]hexa-2,4-diynoxy]-2,3-dihydro-1<I>H</I>-inden-1-yl]pyrrolidine-2-carboxamide

> <PUBCHEM_IUPAC_NAME>
(2S)-1-[(2S)-2-cyclohexyl-2-[[(2S)-2-(methylamino)propanoyl]amino]acetyl]-N-[(1S,2R)-2-[6-[[(1S,2R)-1-[[(2S)-1-[(2S)-2-cyclohexyl-2-[[(2S)-2-(methylamino)propanoyl]amino]acetyl]pyrrolidine-2-carbonyl]amino]-2,3-dihydro-1H-inden-2-yl]oxy]hexa-2,4-diynoxy]-2,3-dihydro-1H-inden-1-yl]pyrrolidine-2-carboxamide

> <PUBCHEM_IUPAC_SYSTEMATIC_NAME>
(2S)-1-[(2S)-2-cyclohexyl-2-[[(2S)-2-(methylamino)propanoyl]amino]ethanoyl]-N-[(1S,2R)-2-[6-[[(1S,2R)-1-[[(2S)-1-[(2S)-2-cyclohexyl-2-[[(2S)-2-(methylamino)propanoyl]amino]ethanoyl]pyrrolidin-2-yl]carbonylamino]-2,3-dihydro-1H-inden-2-yl]oxy]hexa-2,4-diynoxy]-2,3-dihydro-1H-inden-1-yl]pyrrolidine-2-carboxamide

> <PUBCHEM_IUPAC_TRADITIONAL_NAME>
(2S)-1-[(2S)-2-cyclohexyl-2-[[(2S)-2-(methylamino)propanoyl]amino]acetyl]-N-[(1S,2R)-2-[6-[(1S,2R)-1-[[(2S)-1-[(2S)-2-cyclohexyl-2-[[(2S)-2-(methylamino)propanoyl]amino]acetyl]prolyl]amino]indan-2-yl]oxyhexa-2,4-diynoxy]indan-1-yl]pyrrolidine-2-carboxamide

> <PUBCHEM_IUPAC_INCHI>
InChI=1S/C58H78N8O8/c1-37(59-3)53(67)61-49(39-21-9-7-10-22-39)57(71)65-31-19-29-45(65)55(69)63-51-43-27-15-13-25-41(43)35-47(51)73-33-17-5-6-18-34-74-48-36-42-26-14-16-28-44(42)52(48)64-56(70)46-30-20-32-66(46)58(72)50(40-23-11-8-12-24-40)62-54(68)38(2)60-4/h13-16,25-28,37-40,45-52,59-60H,7-12,19-24,29-36H2,1-4H3,(H,61,67)(H,62,68)(H,63,69)(H,64,70)/t37-,38-,45-,46-,47+,48+,49-,50-,51-,52-/m0/s1

> <PUBCHEM_IUPAC_INCHIKEY>
WLMCRYCCYXHPQF-ZVMUOSSASA-N

> <PUBCHEM_XLOGP3_AA>
5.9

> <PUBCHEM_EXACT_MASS>
1014.594262

> <PUBCHEM_MOLECULAR_FORMULA>
C58H78N8O8

> <PUBCHEM_MOLECULAR_WEIGHT>
1015.3

> <PUBCHEM_OPENEYE_CAN_SMILES>
CC(C(=O)NC(C1CCCCC1)C(=O)N2CCCC2C(=O)NC3C(CC4=CC=CC=C34)OCC#CC#CCOC5CC6=CC=CC=C6C5NC(=O)C7CCCN7C(=O)C(C8CCCCC8)NC(=O)C(C)NC)NC

> <PUBCHEM_OPENEYE_ISO_SMILES>
C[C@@H](C(=O)N[C@@H](C1CCCCC1)C(=O)N2CCC[C@H]2C(=O)N[C@@H]3[C@@H](CC4=CC=CC=C34)OCC#CC#CCO[C@@H]5CC6=CC=CC=C6[C@@H]5NC(=O)[C@@H]7CCCN7C(=O)[C@H](C8CCCCC8)NC(=O)[C@H](C)NC)NC

> <PUBCHEM_CACTVS_TPSA>
200

> <PUBCHEM_MONOISOTOPIC_WEIGHT>
1014.594262

> <PUBCHEM_TOTAL_CHARGE>
0

> <PUBCHEM_HEAVY_ATOM_COUNT>
74

> <PUBCHEM_ATOM_DEF_STEREO_COUNT>
10

> <PUBCHEM_ATOM_UDEF_STEREO_COUNT>
0

> <PUBCHEM_BOND_DEF_STEREO_COUNT>
0

> <PUBCHEM_BOND_UDEF_STEREO_COUNT>
0

> <PUBCHEM_ISOTOPIC_ATOM_COUNT>
0

> <PUBCHEM_COMPONENT_COUNT>
1

> <PUBCHEM_CACTVS_TAUTO_COUNT>
-1

> <PUBCHEM_COORDINATE_TYPE>
1
5
255

> <PUBCHEM_BONDANNOTATIONS>
19  11  6
20  12  6
43  13  6
44  14  6
55  15  5
56  16  5
29  41  5
45  3  6
30  42  6
46  4  6
47  53  8
47  57  8
48  54  8
48  58  8
53  59  8
54  60  8
57  63  8
58  64  8
59  65  8
60  66  8
63  65  8
64  66  8

$$$$
57519544
  -OEChem-02182015172D

 50 53  0     0  0  0  0  0  0999 V2000
    6.3301    0.0000    0.0000 O   0  0  0  0  0  0  0  0  0  0  0  0
    8.0622    0.0000    0.0000 N   0  0  0  0  0  0  0  0  0  0  0  0
    2.0000   -4.5000    0.0000 N   0  0  0  0  0  0  0  0  0  0  0  0
    8.9282    5.5000    0.0000 N   0  0  0  0  0  0  0  0  0  0  0  0
    6.3301   -2.0000    0.0000 C   0  0  0  0  0  0  0  0  0  0  0  0
    7.1962   -1.5000    0.0000 C   0  0  0  0  0  0  0  0  0  0  0  0
    4.5981   -3.0000    0.0000 C   0  0  0  0  0  0  0  0  0  0  0  0
    5.4641   -1.5000    0.0000 C   0  0  0  0  0  0  0  0  0  0  0  0
    6.3301   -3.0000    0.0000 C   0  0  0  0  0  0  0  0  0  0  0  0
    3.7320   -3.5000    0.0000 C   0  0  0  0  0  0  0  0  0  0  0  0
    4.5981   -2.0000    0.0000 C   0  0  0  0  0  0  0  0  0  0  0  0
    5.4641   -3.5000    0.0000 C   0  0  0  0  0  0  0  0  0  0  0  0
    7.1962   -0.5000    0.0000 C   0  0  0  0  0  0  0  0  0  0  0  0
    8.0622    1.0000    0.0000 C   0  0  0  0  0  0  0  0  0  0  0  0
    8.0622    3.0000    0.0000 C   0  0  0  0  0  0  0  0  0  0  0  0
    3.7320   -4.5000    0.0000 C   0  0  0  0  0  0  0  0  0  0  0  0
    8.9282    1.5000    0.0000 C   0  0  0  0  0  0  0  0  0  0  0  0
    7.1962    1.5000    0.0000 C   0  0  0  0  0  0  0  0  0  0  0  0
    8.9282    2.5000    0.0000 C   0  0  0  0  0  0  0  0  0  0  0  0
    7.1962    2.5000    0.0000 C   0  0  0  0  0  0  0  0  0  0  0  0
    2.8660   -3.0000    0.0000 C   0  0  0  0  0  0  0  0  0  0  0  0
    8.0622    4.0000    0.0000 C   0  0  0  0  0  0  0  0  0  0  0  0
    2.8660   -5.0000    0.0000 C   0  0  0  0  0  0  0  0  0  0  0  0
    2.0000   -3.5000    0.0000 C   0  0  0  0  0  0  0  0  0  0  0  0
    7.1962    4.5000    0.0000 C   0  0  0  0  0  0  0  0  0  0  0  0
    2.8660   -6.0000    0.0000 C   0  0  0  0  0  0  0  0  0  0  0  0
    8.9282    4.5000    0.0000 C   0  0  0  0  0  0  0  0  0  0  0  0
    7.1962    5.5000    0.0000 C   0  0  0  0  0  0  0  0  0  0  0  0
    8.0622    6.0000    0.0000 C   0  0  0  0  0  0  0  0  0  0  0  0
    7.4082   -2.0826    0.0000 H   0  0  0  0  0  0  0  0  0  0  0  0
    7.8067   -1.3923    0.0000 H   0  0  0  0  0  0  0  0  0  0  0  0
    5.4641   -0.8800    0.0000 H   0  0  0  0  0  0  0  0  0  0  0  0
    6.8671   -3.3100    0.0000 H   0  0  0  0  0  0  0  0  0  0  0  0
    4.0611   -1.6900    0.0000 H   0  0  0  0  0  0  0  0  0  0  0  0
    5.4641   -4.1200    0.0000 H   0  0  0  0  0  0  0  0  0  0  0  0
    8.5991   -0.3100    0.0000 H   0  0  0  0  0  0  0  0  0  0  0  0
    4.2690   -4.8100    0.0000 H   0  0  0  0  0  0  0  0  0  0  0  0
    9.4651    1.1900    0.0000 H   0  0  0  0  0  0  0  0  0  0  0  0
    6.6592    1.1900    0.0000 H   0  0  0  0  0  0  0  0  0  0  0  0
    9.4651    2.8100    0.0000 H   0  0  0  0  0  0  0  0  0  0  0  0
    6.6592    2.8100    0.0000 H   0  0  0  0  0  0  0  0  0  0  0  0
    2.8660   -2.3800    0.0000 H   0  0  0  0  0  0  0  0  0  0  0  0
    1.4631   -3.1900    0.0000 H   0  0  0  0  0  0  0  0  0  0  0  0
    6.6592    4.1900    0.0000 H   0  0  0  0  0  0  0  0  0  0  0  0
    9.4651    4.1900    0.0000 H   0  0  0  0  0  0  0  0  0  0  0  0
    2.2460   -6.0000    0.0000 H   0  0  0  0  0  0  0  0  0  0  0  0
    2.8660   -6.6200    0.0000 H   0  0  0  0  0  0  0  0  0  0  0  0
    3.4860   -6.0000    0.0000 H   0  0  0  0  0  0  0  0  0  0  0  0
    6.6592    5.8100    0.0000 H   0  0  0  0  0  0  0  0  0  0  0  0
    8.0622    6.6200    0.0000 H   0  0  0  0  0  0  0  0  0  0  0  0
  1 13  2  0  0  0  0
  2 13  1  0  0  0  0
  2 14  1  0  0  0  0
  2 36  1  0  0  0  0
  3 23  2  0  0  0  0
  3 24  1  0  0  0  0
  4 27  1  0  0  0  0
  4 29  2  0  0  0  0
  5  6  1  0  0  0  0
  5  8  2  0  0  0  0
  5  9  1  0  0  0  0
  6 13  1  0  0  0  0
  6 30  1  0  0  0  0
  6 31  1  0  0  0  0
  7 10  1  0  0  0  0
  7 11  2  0  0  0  0
  7 12  1  0  0  0  0
  8 11  1  0  0  0  0
  8 32  1  0  0  0  0
  9 12  2  0  0  0  0
  9 33  1  0  0  0  0
 10 16  2  0  0  0  0
 10 21  1  0  0  0  0
 11 34  1  0  0  0  0
 12 35  1  0  0  0  0
 14 17  2  0  0  0  0
 14 18  1  0  0  0  0
 15 19  2  0  0  0  0
 15 20  1  0  0  0  0
 15 22  1  0  0  0  0
 16 23  1  0  0  0  0
 16 37  1  0  0  0  0
 17 19  1  0  0  0  0
 17 38  1  0  0  0  0
 18 20  2  0  0  0  0
 18 39  1  0  0  0  0
 19 40  1  0  0  0  0
 20 41  1  0  0  0  0
 21 24  2  0  0  0  0
 21 42  1  0  0  0  0
 22 25  1  0  0  0  0
 22 27  2  0  0  0  0
 23 26  1  0  0  0  0
 24 43  1  0  0  0  0
 25 28  2  0  0  0  0
 25 44  1  0  0  0  0
 26 46  1  0  0  0  0
 26 47  1  0  0  0  0
 26 48  1  0  0  0  0
 27 45  1  0  0  0  0
 28 29  1  0  0  0  0
 28 49  1  0  0  0  0
 29 50  1  0  0  0  0
M  END
> <PUBCHEM_COMPOUND_CID>
57519544

> <PUBCHEM_COMPOUND_CANONICALIZED>
1

> <PUBCHEM_CACTVS_COMPLEXITY>
508

> <PUBCHEM_CACTVS_HBOND_ACCEPTOR>
3

> <PUBCHEM_CACTVS_HBOND_DONOR>
1

> <PUBCHEM_CACTVS_ROTATABLE_BOND>
5

> <PUBCHEM_CACTVS_SUBSKEYS>
AAADceB7IAAAAAAAAAAAAAAAAAAAAAAAAAA8eIEAAAAAAAAB9AAAHgAQAAAADAjBngQ+wJLIEACoAzV3VACCgCAxAiAI2CE4ZJgIIPLAlZGEIAhglADIyAcYiMCOyAAAAAAAAACQAAAAAAAAAAAAAAAAAA==

> <PUBCHEM_IUPAC_OPENEYE_NAME>
2-[4-(2-methyl-4-pyridyl)phenyl]-N-[4-(3-pyridyl)phenyl]acetamide

> <PUBCHEM_IUPAC_CAS_NAME>
2-[4-(2-methyl-4-pyridinyl)phenyl]-N-[4-(3-pyridinyl)phenyl]acetamide

> <PUBCHEM_IUPAC_NAME_MARKUP>
2-[4-(2-methylpyridin-4-yl)phenyl]-<I>N</I>-(4-pyridin-3-ylphenyl)acetamide

> <PUBCHEM_IUPAC_NAME>
2-[4-(2-methylpyridin-4-yl)phenyl]-N-(4-pyridin-3-ylphenyl)acetamide

> <PUBCHEM_IUPAC_SYSTEMATIC_NAME>
2-[4-(2-methylpyridin-4-yl)phenyl]-N-(4-pyridin-3-ylphenyl)ethanamide

> <PUBCHEM_IUPAC_TRADITIONAL_NAME>
2-[4-(2-methyl-4-pyridyl)phenyl]-N-[4-(3-pyridyl)phenyl]acetamide

> <PUBCHEM_IUPAC_INCHI>
InChI=1S/C25H21N3O/c1-18-15-22(12-14-27-18)20-6-4-19(5-7-20)16-25(29)28-24-10-8-21(9-11-24)23-3-2-13-26-17-23/h2-15,17H,16H2,1H3,(H,28,29)

> <PUBCHEM_IUPAC_INCHIKEY>
KHZOJCQBHJUJFY-UHFFFAOYSA-N

> <PUBCHEM_XLOGP3_AA>
4.2

> <PUBCHEM_EXACT_MASS>
379.168462

> <PUBCHEM_MOLECULAR_FORMULA>
C25H21N3O

> <PUBCHEM_MOLECULAR_WEIGHT>
379.5

> <PUBCHEM_OPENEYE_CAN_SMILES>
CC1=NC=CC(=C1)C2=CC=C(C=C2)CC(=O)NC3=CC=C(C=C3)C4=CN=CC=C4

> <PUBCHEM_OPENEYE_ISO_SMILES>
CC1=NC=CC(=C1)C2=CC=C(C=C2)CC(=O)NC3=CC=C(C=C3)C4=CN=CC=C4

> <PUBCHEM_CACTVS_TPSA>
54.9

> <PUBCHEM_MONOISOTOPIC_WEIGHT>
379.168462

> <PUBCHEM_TOTAL_CHARGE>
0

> <PUBCHEM_HEAVY_ATOM_COUNT>
29

> <PUBCHEM_ATOM_DEF_STEREO_COUNT>
0

> <PUBCHEM_ATOM_UDEF_STEREO_COUNT>
0

> <PUBCHEM_BOND_DEF_STEREO_COUNT>
0

> <PUBCHEM_BOND_UDEF_STEREO_COUNT>
0

> <PUBCHEM_ISOTOPIC_ATOM_COUNT>
0

> <PUBCHEM_COMPONENT_COUNT>
1

> <PUBCHEM_CACTVS_TAUTO_COUNT>
-1

> <PUBCHEM_COORDINATE_TYPE>
1
5
255

> <PUBCHEM_BONDANNOTATIONS>
10  16  8
10  21  8
14  17  8
14  18  8
15  19  8
15  20  8
16  23  8
17  19  8
18  20  8
21  24  8
22  25  8
22  27  8
25  28  8
28  29  8
3  23  8
3  24  8
4  27  8
4  29  8
5  8  8
5  9  8
7  11  8
7  12  8
8  11  8
9  12  8

$$$$
11655119
  -OEChem-02182015172D

 60 65  0     0  0  0  0  0  0999 V2000
    2.8718   -4.8243    0.0000 O   0  0  0  0  0  0  0  0  0  0  0  0
    3.7205   -0.3210    0.0000 O   0  0  0  0  0  0  0  0  0  0  0  0
    6.7506    4.2420    0.0000 N   0  0  0  0  0  0  0  0  0  0  0  0
    7.7506    4.2420    0.0000 N   0  0  0  0  0  0  0  0  0  0  0  0
    2.8641   -2.8243    0.0000 N   0  0  0  0  0  0  0  0  0  0  0  0
    7.2506   -0.2968    0.0000 N   0  0  0  0  0  0  0  0  0  0  0  0
    9.2186    2.0038    0.0000 N   0  0  0  0  0  0  0  0  0  0  0  0
    6.4416    3.2910    0.0000 C   0  0  0  0  0  0  0  0  0  0  0  0
    5.4475    3.2936    0.0000 C   0  0  0  0  0  0  0  0  0  0  0  0
    5.1411    4.2392    0.0000 C   0  0  0  0  0  0  0  0  0  0  0  0
    5.9449    4.8243    0.0000 C   0  0  0  0  0  0  0  0  0  0  0  0
    7.2506    2.7032    0.0000 C   0  0  0  0  0  0  0  0  0  0  0  0
    8.0596    3.2910    0.0000 C   0  0  0  0  0  0  0  0  0  0  0  0
    7.2506    1.7032    0.0000 C   0  0  0  0  0  0  0  0  0  0  0  0
    6.3846    1.2032    0.0000 C   0  0  0  0  0  0  0  0  0  0  0  0
    2.0000   -3.3276    0.0000 C   0  0  0  0  0  0  0  0  0  0  0  0
    3.7320   -3.3209    0.0000 C   0  0  0  0  0  0  0  0  0  0  0  0
    2.8602   -1.8243    0.0000 C   0  0  0  0  0  0  0  0  0  0  0  0
    9.0107    2.9820    0.0000 C   0  0  0  0  0  0  0  0  0  0  0  0
    2.0038   -4.3276    0.0000 C   0  0  0  0  0  0  0  0  0  0  0  0
    3.7359   -4.3209    0.0000 C   0  0  0  0  0  0  0  0  0  0  0  0
    8.1166    1.2032    0.0000 C   0  0  0  0  0  0  0  0  0  0  0  0
    6.3846    0.2032    0.0000 C   0  0  0  0  0  0  0  0  0  0  0  0
    3.7243   -1.3209    0.0000 C   0  0  0  0  0  0  0  0  0  0  0  0
    5.4906    1.7379    0.0000 C   0  0  0  0  0  0  0  0  0  0  0  0
    4.5846    0.1824    0.0000 C   0  0  0  0  0  0  0  0  0  0  0  0
    5.4906   -0.3315    0.0000 C   0  0  0  0  0  0  0  0  0  0  0  0
    8.1166    0.2032    0.0000 C   0  0  0  0  0  0  0  0  0  0  0  0
    4.5846    1.2240    0.0000 C   0  0  0  0  0  0  0  0  0  0  0  0
    9.7538    3.6511    0.0000 C   0  0  0  0  0  0  0  0  0  0  0  0
   10.7049    3.3421    0.0000 C   0  0  0  0  0  0  0  0  0  0  0  0
   10.1696    1.6948    0.0000 C   0  0  0  0  0  0  0  0  0  0  0  0
   10.9128    2.3639    0.0000 C   0  0  0  0  0  0  0  0  0  0  0  0
    4.8409    3.1655    0.0000 H   0  0  0  0  0  0  0  0  0  0  0  0
    5.5111    2.6768    0.0000 H   0  0  0  0  0  0  0  0  0  0  0  0
    4.8310    4.7761    0.0000 H   0  0  0  0  0  0  0  0  0  0  0  0
    4.5747    3.9872    0.0000 H   0  0  0  0  0  0  0  0  0  0  0  0
    6.3588    5.2858    0.0000 H   0  0  0  0  0  0  0  0  0  0  0  0
    5.5293    5.2844    0.0000 H   0  0  0  0  0  0  0  0  0  0  0  0
    1.7857   -2.7458    0.0000 H   0  0  0  0  0  0  0  0  0  0  0  0
    1.3898   -3.4376    0.0000 H   0  0  0  0  0  0  0  0  0  0  0  0
    4.3430   -3.4262    0.0000 H   0  0  0  0  0  0  0  0  0  0  0  0
    3.9418   -2.7375    0.0000 H   0  0  0  0  0  0  0  0  0  0  0  0
    2.6459   -1.2425    0.0000 H   0  0  0  0  0  0  0  0  0  0  0  0
    2.2501   -1.9343    0.0000 H   0  0  0  0  0  0  0  0  0  0  0  0
    1.3929   -4.2223    0.0000 H   0  0  0  0  0  0  0  0  0  0  0  0
    1.7940   -4.9110    0.0000 H   0  0  0  0  0  0  0  0  0  0  0  0
    3.9502   -4.9027    0.0000 H   0  0  0  0  0  0  0  0  0  0  0  0
    4.3460   -4.2109    0.0000 H   0  0  0  0  0  0  0  0  0  0  0  0
    8.6536    1.5132    0.0000 H   0  0  0  0  0  0  0  0  0  0  0  0
    3.9386   -1.9027    0.0000 H   0  0  0  0  0  0  0  0  0  0  0  0
    4.3345   -1.2109    0.0000 H   0  0  0  0  0  0  0  0  0  0  0  0
    5.4978    2.3578    0.0000 H   0  0  0  0  0  0  0  0  0  0  0  0
    5.4978   -0.9514    0.0000 H   0  0  0  0  0  0  0  0  0  0  0  0
    8.6536   -0.1068    0.0000 H   0  0  0  0  0  0  0  0  0  0  0  0
    4.0488    1.5361    0.0000 H   0  0  0  0  0  0  0  0  0  0  0  0
    9.6249    4.2576    0.0000 H   0  0  0  0  0  0  0  0  0  0  0  0
   11.1656    3.7569    0.0000 H   0  0  0  0  0  0  0  0  0  0  0  0
   10.2985    1.0884    0.0000 H   0  0  0  0  0  0  0  0  0  0  0  0
   11.5024    2.1723    0.0000 H   0  0  0  0  0  0  0  0  0  0  0  0
  1 20  1  0  0  0  0
  1 21  1  0  0  0  0
  2 24  1  0  0  0  0
  2 26  1  0  0  0  0
  3  4  1  0  0  0  0
  3  8  1  0  0  0  0
  3 11  1  0  0  0  0
  4 13  2  0  0  0  0
  5 16  1  0  0  0  0
  5 17  1  0  0  0  0
  5 18  1  0  0  0  0
  6 23  2  0  0  0  0
  6 28  1  0  0  0  0
  7 19  1  0  0  0  0
  7 32  2  0  0  0  0
  8  9  1  0  0  0  0
  8 12  2  0  0  0  0
  9 10  1  0  0  0  0
  9 34  1  0  0  0  0
  9 35  1  0  0  0  0
 10 11  1  0  0  0  0
 10 36  1  0  0  0  0
 10 37  1  0  0  0  0
 11 38  1  0  0  0  0
 11 39  1  0  0  0  0
 12 13  1  0  0  0  0
 12 14  1  0  0  0  0
 13 19  1  0  0  0  0
 14 15  2  0  0  0  0
 14 22  1  0  0  0  0
 15 23  1  0  0  0  0
 15 25  1  0  0  0  0
 16 20  1  0  0  0  0
 16 40  1  0  0  0  0
 16 41  1  0  0  0  0
 17 21  1  0  0  0  0
 17 42  1  0  0  0  0
 17 43  1  0  0  0  0
 18 24  1  0  0  0  0
 18 44  1  0  0  0  0
 18 45  1  0  0  0  0
 19 30  2  0  0  0  0
 20 46  1  0  0  0  0
 20 47  1  0  0  0  0
 21 48  1  0  0  0  0
 21 49  1  0  0  0  0
 22 28  2  0  0  0  0
 22 50  1  0  0  0  0
 23 27  1  0  0  0  0
 24 51  1  0  0  0  0
 24 52  1  0  0  0  0
 25 29  2  0  0  0  0
 25 53  1  0  0  0  0
 26 27  2  0  0  0  0
 26 29  1  0  0  0  0
 27 54  1  0  0  0  0
 28 55  1  0  0  0  0
 29 56  1  0  0  0  0
 30 31  1  0  0  0  0
 30 57  1  0  0  0  0
 31 33  2  0  0  0  0
 31 58  1  0  0  0  0
 32 33  1  0  0  0  0
 32 59  1  0  0  0  0
 33 60  1  0  0  0  0
M  END
> <PUBCHEM_COMPOUND_CID>
11655119

> <PUBCHEM_COMPOUND_CANONICALIZED>
1

> <PUBCHEM_CACTVS_COMPLEXITY>
632

> <PUBCHEM_CACTVS_HBOND_ACCEPTOR>
6

> <PUBCHEM_CACTVS_HBOND_DONOR>
0

> <PUBCHEM_CACTVS_ROTATABLE_BOND>
6

> <PUBCHEM_CACTVS_SUBSKEYS>
AAADceB7sAAAAAAAAAAAAAAAAAAAAWLAAAA8WLEAAAAWAACx/gAAHgAIAAAADAzhngY8xvMIFACiAzRnRACSjCAxoiAY2CA+bJgOZuLE8duXvCjmyBnY6AeQ0PMOoAAAAgACAABAAAAEAAQAAAAAAAAAAA==

> <PUBCHEM_IUPAC_OPENEYE_NAME>
4-[2-[[4-[2-(2-pyridyl)-5,6-dihydro-4H-pyrrolo[1,2-b]pyrazol-3-yl]-7-quinolyl]oxy]ethyl]morpholine

> <PUBCHEM_IUPAC_CAS_NAME>
4-[2-[[4-[2-(2-pyridinyl)-5,6-dihydro-4H-pyrrolo[1,2-b]pyrazol-3-yl]-7-quinolinyl]oxy]ethyl]morpholine

> <PUBCHEM_IUPAC_NAME_MARKUP>
4-[2-[4-(2-pyridin-2-yl-5,6-dihydro-4<I>H</I>-pyrrolo[1,2-b]pyrazol-3-yl)quinolin-7-yl]oxyethyl]morpholine

> <PUBCHEM_IUPAC_NAME>
4-[2-[4-(2-pyridin-2-yl-5,6-dihydro-4H-pyrrolo[1,2-b]pyrazol-3-yl)quinolin-7-yl]oxyethyl]morpholine

> <PUBCHEM_IUPAC_SYSTEMATIC_NAME>
4-[2-[4-(2-pyridin-2-yl-5,6-dihydro-4H-pyrrolo[1,2-b]pyrazol-3-yl)quinolin-7-yl]oxyethyl]morpholine

> <PUBCHEM_IUPAC_TRADITIONAL_NAME>
4-[2-[[4-[2-(2-pyridyl)-5,6-dihydro-4H-pyrrolo[1,2-b]pyrazol-3-yl]-7-quinolyl]oxy]ethyl]morpholine

> <PUBCHEM_IUPAC_INCHI>
InChI=1S/C26H27N5O2/c1-2-9-27-22(4-1)26-25(24-5-3-11-31(24)29-26)21-8-10-28-23-18-19(6-7-20(21)23)33-17-14-30-12-15-32-16-13-30/h1-2,4,6-10,18H,3,5,11-17H2

> <PUBCHEM_IUPAC_INCHIKEY>
IHLVSLOZUHKNMQ-UHFFFAOYSA-N

> <PUBCHEM_XLOGP3_AA>
2.8

> <PUBCHEM_EXACT_MASS>
441.216475

> <PUBCHEM_MOLECULAR_FORMULA>
C26H27N5O2

> <PUBCHEM_MOLECULAR_WEIGHT>
441.5

> <PUBCHEM_OPENEYE_CAN_SMILES>
C1CC2=C(C(=NN2C1)C3=CC=CC=N3)C4=C5C=CC(=CC5=NC=C4)OCCN6CCOCC6

> <PUBCHEM_OPENEYE_ISO_SMILES>
C1CC2=C(C(=NN2C1)C3=CC=CC=N3)C4=C5C=CC(=CC5=NC=C4)OCCN6CCOCC6

> <PUBCHEM_CACTVS_TPSA>
65.3

> <PUBCHEM_MONOISOTOPIC_WEIGHT>
441.216475

> <PUBCHEM_TOTAL_CHARGE>
0

> <PUBCHEM_HEAVY_ATOM_COUNT>
33

> <PUBCHEM_ATOM_DEF_STEREO_COUNT>
0

> <PUBCHEM_ATOM_UDEF_STEREO_COUNT>
0

> <PUBCHEM_BOND_DEF_STEREO_COUNT>
0

> <PUBCHEM_BOND_UDEF_STEREO_COUNT>
0

> <PUBCHEM_ISOTOPIC_ATOM_COUNT>
0

> <PUBCHEM_COMPONENT_COUNT>
1

> <PUBCHEM_CACTVS_TAUTO_COUNT>
-1

> <PUBCHEM_COORDINATE_TYPE>
1
5
255

> <PUBCHEM_BONDANNOTATIONS>
12  13  8
14  15  8
14  22  8
15  23  8
15  25  8
19  30  8
22  28  8
23  27  8
25  29  8
26  27  8
26  29  8
3  4  8
3  8  8
30  31  8
31  33  8
32  33  8
4  13  8
6  23  8
6  28  8
7  19  8
7  32  8
8  12  8

$$$$
2802462
  -OEChem-02182015172D

 36 38  0     0  0  0  0  0  0999 V2000
    4.6660   -0.2500    0.0000 O   0  0  0  0  0  0  0  0  0  0  0  0
    4.6660    2.7500    0.0000 O   0  0  0  0  0  0  0  0  0  0  0  0
    8.9962   -1.7500    0.0000 C   0  0  0  0  0  0  0  0  0  0  0  0
    8.1301   -1.2500    0.0000 C   0  0  0  0  0  0  0  0  0  0  0  0
    6.3981   -0.2500    0.0000 C   0  0  0  0  0  0  0  0  0  0  0  0
    8.1301   -0.2500    0.0000 C   0  0  0  0  0  0  0  0  0  0  0  0
    7.2641   -1.7500    0.0000 C   0  0  0  0  0  0  0  0  0  0  0  0
    9.8622   -1.2500    0.0000 C   0  0  0  0  0  0  0  0  0  0  0  0
    8.9962   -2.7500    0.0000 C   0  0  0  0  0  0  0  0  0  0  0  0
    5.5321    0.2500    0.0000 C   0  0  0  0  0  0  0  0  0  0  0  0
    7.2641    0.2500    0.0000 C   0  0  0  0  0  0  0  0  0  0  0  0
    6.3981   -1.2500    0.0000 C   0  0  0  0  0  0  0  0  0  0  0  0
    3.8000    1.2500    0.0000 C   0  0  0  0  0  0  0  0  0  0  0  0
    3.8000    0.2500    0.0000 C   0  0  0  0  0  0  0  0  0  0  0  0
    5.5321    1.2500    0.0000 C   0  0  0  0  0  0  0  0  0  0  0  0
    4.6660    1.7500    0.0000 C   0  0  0  0  0  0  0  0  0  0  0  0
    2.9061    1.7847    0.0000 C   0  0  0  0  0  0  0  0  0  0  0  0
    2.9061   -0.2847    0.0000 C   0  0  0  0  0  0  0  0  0  0  0  0
    2.0000    1.2708    0.0000 C   0  0  0  0  0  0  0  0  0  0  0  0
    2.0000    0.2292    0.0000 C   0  0  0  0  0  0  0  0  0  0  0  0
    9.5331   -2.0600    0.0000 H   0  0  0  0  0  0  0  0  0  0  0  0
    8.6671    0.0600    0.0000 H   0  0  0  0  0  0  0  0  0  0  0  0
    7.2641   -2.3700    0.0000 H   0  0  0  0  0  0  0  0  0  0  0  0
   10.1722   -1.7869    0.0000 H   0  0  0  0  0  0  0  0  0  0  0  0
   10.3991   -0.9400    0.0000 H   0  0  0  0  0  0  0  0  0  0  0  0
    9.5522   -0.7131    0.0000 H   0  0  0  0  0  0  0  0  0  0  0  0
    8.3762   -2.7500    0.0000 H   0  0  0  0  0  0  0  0  0  0  0  0
    8.9962   -3.3700    0.0000 H   0  0  0  0  0  0  0  0  0  0  0  0
    9.6162   -2.7500    0.0000 H   0  0  0  0  0  0  0  0  0  0  0  0
    7.2641    0.8700    0.0000 H   0  0  0  0  0  0  0  0  0  0  0  0
    5.8612   -1.5600    0.0000 H   0  0  0  0  0  0  0  0  0  0  0  0
    6.0690    1.5600    0.0000 H   0  0  0  0  0  0  0  0  0  0  0  0
    2.9132    2.4046    0.0000 H   0  0  0  0  0  0  0  0  0  0  0  0
    2.9132   -0.9046    0.0000 H   0  0  0  0  0  0  0  0  0  0  0  0
    1.4643    1.5829    0.0000 H   0  0  0  0  0  0  0  0  0  0  0  0
    1.4643   -0.0829    0.0000 H   0  0  0  0  0  0  0  0  0  0  0  0
  1 10  1  0  0  0  0
  1 14  1  0  0  0  0
  2 16  2  0  0  0  0
  3  4  1  0  0  0  0
  3  8  1  0  0  0  0
  3  9  1  0  0  0  0
  3 21  1  0  0  0  0
  4  6  2  0  0  0  0
  4  7  1  0  0  0  0
  5 10  1  0  0  0  0
  5 11  2  0  0  0  0
  5 12  1  0  0  0  0
  6 11  1  0  0  0  0
  6 22  1  0  0  0  0
  7 12  2  0  0  0  0
  7 23  1  0  0  0  0
  8 24  1  0  0  0  0
  8 25  1  0  0  0  0
  8 26  1  0  0  0  0
  9 27  1  0  0  0  0
  9 28  1  0  0  0  0
  9 29  1  0  0  0  0
 10 15  2  0  0  0  0
 11 30  1  0  0  0  0
 12 31  1  0  0  0  0
 13 14  1  0  0  0  0
 13 16  1  0  0  0  0
 13 17  2  0  0  0  0
 14 18  2  0  0  0  0
 15 16  1  0  0  0  0
 15 32  1  0  0  0  0
 17 19  1  0  0  0  0
 17 33  1  0  0  0  0
 18 20  1  0  0  0  0
 18 34  1  0  0  0  0
 19 20  2  0  0  0  0
 19 35  1  0  0  0  0
 20 36  1  0  0  0  0
M  END
> <PUBCHEM_COMPOUND_CID>
2802462

> <PUBCHEM_COMPOUND_CANONICALIZED>
1

> <PUBCHEM_CACTVS_COMPLEXITY>
388

> <PUBCHEM_CACTVS_HBOND_ACCEPTOR>
2

> <PUBCHEM_CACTVS_HBOND_DONOR>
0

> <PUBCHEM_CACTVS_ROTATABLE_BOND>
2

> <PUBCHEM_CACTVS_SUBSKEYS>
AAADceB4MAAAAAAAAAAAAAAAAAAAAAAAAAAwYIAAAAAAAACBQAAAGgAAAAAADQSAmAAyBoAABACIAqBSAAACCAAkIAAIiAEGCMgMJjaENRqCOWCk4BEIqYeIyPCOwAAAAAAIAACAAAAAABAAAAAAAAAAAA==

> <PUBCHEM_IUPAC_OPENEYE_NAME>
2-(4-isopropylphenyl)chromen-4-one

> <PUBCHEM_IUPAC_CAS_NAME>
2-(4-propan-2-ylphenyl)-1-benzopyran-4-one

> <PUBCHEM_IUPAC_NAME_MARKUP>
2-(4-propan-2-ylphenyl)chromen-4-one

> <PUBCHEM_IUPAC_NAME>
2-(4-propan-2-ylphenyl)chromen-4-one

> <PUBCHEM_IUPAC_SYSTEMATIC_NAME>
2-(4-propan-2-ylphenyl)chromen-4-one

> <PUBCHEM_IUPAC_TRADITIONAL_NAME>
2-p-cumenylchromone

> <PUBCHEM_IUPAC_INCHI>
InChI=1S/C18H16O2/c1-12(2)13-7-9-14(10-8-13)18-11-16(19)15-5-3-4-6-17(15)20-18/h3-12H,1-2H3

> <PUBCHEM_IUPAC_INCHIKEY>
PYTOHIUBXSJKQH-UHFFFAOYSA-N

> <PUBCHEM_XLOGP3>
4.7

> <PUBCHEM_EXACT_MASS>
264.11503

> <PUBCHEM_MOLECULAR_FORMULA>
C18H16O2

> <PUBCHEM_MOLECULAR_WEIGHT>
264.3

> <PUBCHEM_OPENEYE_CAN_SMILES>
CC(C)C1=CC=C(C=C1)C2=CC(=O)C3=CC=CC=C3O2

> <PUBCHEM_OPENEYE_ISO_SMILES>
CC(C)C1=CC=C(C=C1)C2=CC(=O)C3=CC=CC=C3O2

> <PUBCHEM_CACTVS_TPSA>
26.3

> <PUBCHEM_MONOISOTOPIC_WEIGHT>
264.11503

> <PUBCHEM_TOTAL_CHARGE>
0

> <PUBCHEM_HEAVY_ATOM_COUNT>
20

> <PUBCHEM_ATOM_DEF_STEREO_COUNT>
0

> <PUBCHEM_ATOM_UDEF_STEREO_COUNT>
0

> <PUBCHEM_BOND_DEF_STEREO_COUNT>
0

> <PUBCHEM_BOND_UDEF_STEREO_COUNT>
0

> <PUBCHEM_ISOTOPIC_ATOM_COUNT>
0

> <PUBCHEM_COMPONENT_COUNT>
1

> <PUBCHEM_CACTVS_TAUTO_COUNT>
-1

> <PUBCHEM_COORDINATE_TYPE>
1
5
255

> <PUBCHEM_BONDANNOTATIONS>
1  10  8
1  14  8
10  15  8
13  14  8
13  16  8
13  17  8
14  18  8
15  16  8
17  19  8
18  20  8
19  20  8
4  6  8
4  7  8
5  11  8
5  12  8
6  11  8
7  12  8

$$$$
24788740
  -OEChem-02182015172D

 64 67  0     1  0  0  0  0  0999 V2000
    5.4641    5.6916    0.0000 Cl  0  0  0  0  0  0  0  0  0  0  0  0
    8.4530   -5.5637    0.0000 O   0  0  0  0  0  0  0  0  0  0  0  0
    7.1962    1.6916    0.0000 O   0  0  0  0  0  0  0  0  0  0  0  0
    6.3301   -1.8084    0.0000 N   0  0  0  0  0  0  0  0  0  0  0  0
    6.3301    0.1916    0.0000 N   0  0  0  0  0  0  0  0  0  0  0  0
    6.3301   -4.8084    0.0000 N   0  0  0  0  0  0  0  0  0  0  0  0
    5.4641   -3.3084    0.0000 N   0  0  0  0  0  0  0  0  0  0  0  0
    3.7320    1.6916    0.0000 N   0  0  0  0  0  0  0  0  0  0  0  0
    8.1424   -3.0037    0.0000 C   0  0  1  0  0  0  0  0  0  0  0  0
    7.1962   -3.3084    0.0000 C   0  0  0  0  0  0  0  0  0  0  0  0
    8.7260   -3.8084    0.0000 C   0  0  0  0  0  0  0  0  0  0  0  0
    8.1424   -4.6132    0.0000 C   0  0  2  0  0  0  0  0  0  0  0  0
    7.1962   -4.3084    0.0000 C   0  0  0  0  0  0  0  0  0  0  0  0
    6.3301   -2.8084    0.0000 C   0  0  0  0  0  0  0  0  0  0  0  0
    5.4641   -1.3084    0.0000 C   0  0  0  0  0  0  0  0  0  0  0  0
    7.1962   -1.3084    0.0000 C   0  0  0  0  0  0  0  0  0  0  0  0
    5.4641   -0.3084    0.0000 C   0  0  0  0  0  0  0  0  0  0  0  0
    7.1962   -0.3084    0.0000 C   0  0  0  0  0  0  0  0  0  0  0  0
    8.4530   -2.0532    0.0000 C   0  0  0  0  0  0  0  0  0  0  0  0
    6.3301    1.1916    0.0000 C   0  0  0  0  0  0  0  0  0  0  0  0
    5.4641    1.6916    0.0000 C   0  0  2  0  0  0  0  0  0  0  0  0
    4.5981    1.1916    0.0000 C   0  0  0  0  0  0  0  0  0  0  0  0
    5.4641   -4.3084    0.0000 C   0  0  0  0  0  0  0  0  0  0  0  0
    5.4641    2.6916    0.0000 C   0  0  0  0  0  0  0  0  0  0  0  0
    2.8660    1.1916    0.0000 C   0  0  0  0  0  0  0  0  0  0  0  0
    4.5981    3.1916    0.0000 C   0  0  0  0  0  0  0  0  0  0  0  0
    6.3301    3.1916    0.0000 C   0  0  0  0  0  0  0  0  0  0  0  0
    2.0000    1.6916    0.0000 C   0  0  0  0  0  0  0  0  0  0  0  0
    2.8660    0.1916    0.0000 C   0  0  0  0  0  0  0  0  0  0  0  0
    4.5981    4.1916    0.0000 C   0  0  0  0  0  0  0  0  0  0  0  0
    6.3301    4.1916    0.0000 C   0  0  0  0  0  0  0  0  0  0  0  0
    5.4641    4.6916    0.0000 C   0  0  0  0  0  0  0  0  0  0  0  0
    7.7049   -2.5644    0.0000 H   0  0  0  0  0  0  0  0  0  0  0  0
    9.1868   -4.2232    0.0000 H   0  0  0  0  0  0  0  0  0  0  0  0
    9.1868   -3.3937    0.0000 H   0  0  0  0  0  0  0  0  0  0  0  0
    7.7049   -5.0525    0.0000 H   0  0  0  0  0  0  0  0  0  0  0  0
    4.8535   -1.2008    0.0000 H   0  0  0  0  0  0  0  0  0  0  0  0
    5.2520   -1.8911    0.0000 H   0  0  0  0  0  0  0  0  0  0  0  0
    7.4082   -1.8911    0.0000 H   0  0  0  0  0  0  0  0  0  0  0  0
    7.8067   -1.2008    0.0000 H   0  0  0  0  0  0  0  0  0  0  0  0
    5.2520    0.2742    0.0000 H   0  0  0  0  0  0  0  0  0  0  0  0
    4.8535   -0.4161    0.0000 H   0  0  0  0  0  0  0  0  0  0  0  0
    7.8067   -0.4161    0.0000 H   0  0  0  0  0  0  0  0  0  0  0  0
    7.4082    0.2742    0.0000 H   0  0  0  0  0  0  0  0  0  0  0  0
    9.0424   -2.2458    0.0000 H   0  0  0  0  0  0  0  0  0  0  0  0
    8.6456   -1.4639    0.0000 H   0  0  0  0  0  0  0  0  0  0  0  0
    7.8637   -1.8606    0.0000 H   0  0  0  0  0  0  0  0  0  0  0  0
    5.4641    1.0716    0.0000 H   0  0  0  0  0  0  0  0  0  0  0  0
    4.1996    0.7166    0.0000 H   0  0  0  0  0  0  0  0  0  0  0  0
    4.9966    0.7166    0.0000 H   0  0  0  0  0  0  0  0  0  0  0  0
    9.0597   -5.6916    0.0000 H   0  0  0  0  0  0  0  0  0  0  0  0
    4.9272   -4.6184    0.0000 H   0  0  0  0  0  0  0  0  0  0  0  0
    3.7320    2.3116    0.0000 H   0  0  0  0  0  0  0  0  0  0  0  0
    2.8660    1.8116    0.0000 H   0  0  0  0  0  0  0  0  0  0  0  0
    4.0611    2.8816    0.0000 H   0  0  0  0  0  0  0  0  0  0  0  0
    6.8671    2.8816    0.0000 H   0  0  0  0  0  0  0  0  0  0  0  0
    2.3100    2.2285    0.0000 H   0  0  0  0  0  0  0  0  0  0  0  0
    1.4631    2.0016    0.0000 H   0  0  0  0  0  0  0  0  0  0  0  0
    1.6900    1.1546    0.0000 H   0  0  0  0  0  0  0  0  0  0  0  0
    2.2460    0.1916    0.0000 H   0  0  0  0  0  0  0  0  0  0  0  0
    2.8660   -0.4284    0.0000 H   0  0  0  0  0  0  0  0  0  0  0  0
    3.4860    0.1916    0.0000 H   0  0  0  0  0  0  0  0  0  0  0  0
    4.0611    4.5016    0.0000 H   0  0  0  0  0  0  0  0  0  0  0  0
    6.8671    4.5016    0.0000 H   0  0  0  0  0  0  0  0  0  0  0  0
  1 32  1  0  0  0  0
 12  2  1  1  0  0  0
  2 51  1  0  0  0  0
  3 20  2  0  0  0  0
  4 14  1  0  0  0  0
  4 15  1  0  0  0  0
  4 16  1  0  0  0  0
  5 17  1  0  0  0  0
  5 18  1  0  0  0  0
  5 20  1  0  0  0  0
  6 13  1  0  0  0  0
  6 23  2  0  0  0  0
  7 14  2  0  0  0  0
  7 23  1  0  0  0  0
  8 22  1  0  0  0  0
  8 25  1  0  0  0  0
  8 53  1  0  0  0  0
  9 10  1  0  0  0  0
  9 11  1  0  0  0  0
  9 19  1  6  0  0  0
  9 33  1  0  0  0  0
 10 13  2  0  0  0  0
 10 14  1  0  0  0  0
 11 12  1  0  0  0  0
 11 34  1  0  0  0  0
 11 35  1  0  0  0  0
 12 13  1  0  0  0  0
 12 36  1  0  0  0  0
 15 17  1  0  0  0  0
 15 37  1  0  0  0  0
 15 38  1  0  0  0  0
 16 18  1  0  0  0  0
 16 39  1  0  0  0  0
 16 40  1  0  0  0  0
 17 41  1  0  0  0  0
 17 42  1  0  0  0  0
 18 43  1  0  0  0  0
 18 44  1  0  0  0  0
 19 45  1  0  0  0  0
 19 46  1  0  0  0  0
 19 47  1  0  0  0  0
 20 21  1  0  0  0  0
 21 22  1  6  0  0  0
 21 24  1  0  0  0  0
 21 48  1  0  0  0  0
 22 49  1  0  0  0  0
 22 50  1  0  0  0  0
 23 52  1  0  0  0  0
 24 26  2  0  0  0  0
 24 27  1  0  0  0  0
 25 28  1  0  0  0  0
 25 29  1  0  0  0  0
 25 54  1  0  0  0  0
 26 30  1  0  0  0  0
 26 55  1  0  0  0  0
 27 31  2  0  0  0  0
 27 56  1  0  0  0  0
 28 57  1  0  0  0  0
 28 58  1  0  0  0  0
 28 59  1  0  0  0  0
 29 60  1  0  0  0  0
 29 61  1  0  0  0  0
 29 62  1  0  0  0  0
 30 32  2  0  0  0  0
 30 63  1  0  0  0  0
 31 32  1  0  0  0  0
 31 64  1  0  0  0  0
M  END
> <PUBCHEM_COMPOUND_CID>
24788740

> <PUBCHEM_COMPOUND_CANONICALIZED>
1

> <PUBCHEM_CACTVS_COMPLEXITY>
622

> <PUBCHEM_CACTVS_HBOND_ACCEPTOR>
6

> <PUBCHEM_CACTVS_HBOND_DONOR>
2

> <PUBCHEM_CACTVS_ROTATABLE_BOND>
6

> <PUBCHEM_CACTVS_SUBSKEYS>
AAADcfB7sAAEAAAAAAAAAAAAAAAAAYAAAAA8WIAAAAAAAFgBwAAAHgIQCAAADT7hniY3sJfIEgCoAydzdASCgCkxBaAJ2KE4TpiKfjrB39GUdAhs1gPY2Ce4mMKOhAAAAAAAAAAIAAAAAAAAAKAACQgAAA==

> <PUBCHEM_IUPAC_OPENEYE_NAME>
(2S)-2-(4-chlorophenyl)-1-[4-[(5R,7R)-7-hydroxy-5-methyl-6,7-dihydro-5H-cyclopenta[d]pyrimidin-4-yl]piperazin-1-yl]-3-(isopropylamino)propan-1-one

> <PUBCHEM_IUPAC_CAS_NAME>
(2S)-2-(4-chlorophenyl)-1-[4-[(5R,7R)-7-hydroxy-5-methyl-6,7-dihydro-5H-cyclopenta[d]pyrimidin-4-yl]-1-piperazinyl]-3-(propan-2-ylamino)-1-propanone

> <PUBCHEM_IUPAC_NAME_MARKUP>
(2<I>S</I>)-2-(4-chlorophenyl)-1-[4-[(5<I>R</I>,7<I>R</I>)-7-hydroxy-5-methyl-6,7-dihydro-5<I>H</I>-cyclopenta[d]pyrimidin-4-yl]piperazin-1-yl]-3-(propan-2-ylamino)propan-1-one

> <PUBCHEM_IUPAC_NAME>
(2S)-2-(4-chlorophenyl)-1-[4-[(5R,7R)-7-hydroxy-5-methyl-6,7-dihydro-5H-cyclopenta[d]pyrimidin-4-yl]piperazin-1-yl]-3-(propan-2-ylamino)propan-1-one

> <PUBCHEM_IUPAC_SYSTEMATIC_NAME>
(2S)-2-(4-chlorophenyl)-1-[4-[(5R,7R)-5-methyl-7-oxidanyl-6,7-dihydro-5H-cyclopenta[d]pyrimidin-4-yl]piperazin-1-yl]-3-(propan-2-ylamino)propan-1-one

> <PUBCHEM_IUPAC_TRADITIONAL_NAME>
(2S)-2-(4-chlorophenyl)-1-[4-[(5R,7R)-7-hydroxy-5-methyl-6,7-dihydro-5H-cyclopenta[d]pyrimidin-4-yl]piperazino]-3-(isopropylamino)propan-1-one

> <PUBCHEM_IUPAC_INCHI>
InChI=1S/C24H32ClN5O2/c1-15(2)26-13-19(17-4-6-18(25)7-5-17)24(32)30-10-8-29(9-11-30)23-21-16(3)12-20(31)22(21)27-14-28-23/h4-7,14-16,19-20,26,31H,8-13H2,1-3H3/t16-,19-,20-/m1/s1

> <PUBCHEM_IUPAC_INCHIKEY>
GRZXWCHAXNAUHY-NSISKUIASA-N

> <PUBCHEM_XLOGP3_AA>
2.5

> <PUBCHEM_EXACT_MASS>
457.224453

> <PUBCHEM_MOLECULAR_FORMULA>
C24H32ClN5O2

> <PUBCHEM_MOLECULAR_WEIGHT>
458

> <PUBCHEM_OPENEYE_CAN_SMILES>
CC1CC(C2=C1C(=NC=N2)N3CCN(CC3)C(=O)C(CNC(C)C)C4=CC=C(C=C4)Cl)O

> <PUBCHEM_OPENEYE_ISO_SMILES>
C[C@@H]1C[C@H](C2=C1C(=NC=N2)N3CCN(CC3)C(=O)[C@H](CNC(C)C)C4=CC=C(C=C4)Cl)O

> <PUBCHEM_CACTVS_TPSA>
81.6

> <PUBCHEM_MONOISOTOPIC_WEIGHT>
457.224453

> <PUBCHEM_TOTAL_CHARGE>
0

> <PUBCHEM_HEAVY_ATOM_COUNT>
32

> <PUBCHEM_ATOM_DEF_STEREO_COUNT>
3

> <PUBCHEM_ATOM_UDEF_STEREO_COUNT>
0

> <PUBCHEM_BOND_DEF_STEREO_COUNT>
0

> <PUBCHEM_BOND_UDEF_STEREO_COUNT>
0

> <PUBCHEM_ISOTOPIC_ATOM_COUNT>
0

> <PUBCHEM_COMPONENT_COUNT>
1

> <PUBCHEM_CACTVS_TAUTO_COUNT>
-1

> <PUBCHEM_COORDINATE_TYPE>
1
5
255

> <PUBCHEM_BONDANNOTATIONS>
10  13  8
10  14  8
12  2  5
21  22  6
24  26  8
24  27  8
26  30  8
27  31  8
30  32  8
31  32  8
6  13  8
6  23  8
7  14  8
7  23  8
9  19  6

$$$$
56941241
  -OEChem-02182015172D

 52 55  0     0  0  0  0  0  0999 V2000
    7.1962    3.9050    0.0000 Cl  0  0  0  0  0  0  0  0  0  0  0  0
    3.7320    3.9050    0.0000 F   0  0  0  0  0  0  0  0  0  0  0  0
    2.8660   -3.5950    0.0000 O   0  0  0  0  0  0  0  0  0  0  0  0
    2.0000   -2.0950    0.0000 O   0  0  0  0  0  0  0  0  0  0  0  0
   10.7404   -0.8997    0.0000 N   0  0  0  0  0  0  0  0  0  0  0  0
   11.3241   -0.0950    0.0000 N   0  0  0  0  0  0  0  0  0  0  0  0
    7.1962    0.9050    0.0000 C   0  0  0  0  0  0  0  0  0  0  0  0
    7.1962    1.9050    0.0000 C   0  0  0  0  0  0  0  0  0  0  0  0
    8.0622    0.4050    0.0000 C   0  0  0  0  0  0  0  0  0  0  0  0
    8.0622    2.4050    0.0000 C   0  0  0  0  0  0  0  0  0  0  0  0
    6.3301    0.4050    0.0000 C   0  0  0  0  0  0  0  0  0  0  0  0
    6.3301    2.4050    0.0000 C   0  0  0  0  0  0  0  0  0  0  0  0
    8.9282    0.9050    0.0000 C   0  0  0  0  0  0  0  0  0  0  0  0
    9.7942    0.4050    0.0000 C   0  0  0  0  0  0  0  0  0  0  0  0
    8.0622   -0.5950    0.0000 C   0  0  0  0  0  0  0  0  0  0  0  0
    9.7942   -0.5950    0.0000 C   0  0  0  0  0  0  0  0  0  0  0  0
    8.9282   -1.0950    0.0000 C   0  0  0  0  0  0  0  0  0  0  0  0
    5.4641    0.9050    0.0000 C   0  0  0  0  0  0  0  0  0  0  0  0
    6.3301   -0.5950    0.0000 C   0  0  0  0  0  0  0  0  0  0  0  0
    8.0622    3.4050    0.0000 C   0  0  0  0  0  0  0  0  0  0  0  0
    6.3301    3.4050    0.0000 C   0  0  0  0  0  0  0  0  0  0  0  0
    5.4641    1.9050    0.0000 C   0  0  0  0  0  0  0  0  0  0  0  0
   10.7404    0.7097    0.0000 C   0  0  0  0  0  0  0  0  0  0  0  0
    4.5981    0.4050    0.0000 C   0  0  0  0  0  0  0  0  0  0  0  0
    5.4641   -1.0950    0.0000 C   0  0  0  0  0  0  0  0  0  0  0  0
    4.5981   -0.5950    0.0000 C   0  0  0  0  0  0  0  0  0  0  0  0
    5.4641    3.9050    0.0000 C   0  0  0  0  0  0  0  0  0  0  0  0
    4.5981    2.4050    0.0000 C   0  0  0  0  0  0  0  0  0  0  0  0
    4.5981    3.4050    0.0000 C   0  0  0  0  0  0  0  0  0  0  0  0
    3.7320   -1.0950    0.0000 C   0  0  0  0  0  0  0  0  0  0  0  0
    3.7320   -2.0950    0.0000 C   0  0  0  0  0  0  0  0  0  0  0  0
    2.8660   -2.5950    0.0000 C   0  0  0  0  0  0  0  0  0  0  0  0
    8.2742    1.8224    0.0000 H   0  0  0  0  0  0  0  0  0  0  0  0
    8.6728    2.5127    0.0000 H   0  0  0  0  0  0  0  0  0  0  0  0
    8.9282    1.5250    0.0000 H   0  0  0  0  0  0  0  0  0  0  0  0
    7.5252   -0.9050    0.0000 H   0  0  0  0  0  0  0  0  0  0  0  0
    8.9282   -1.7150    0.0000 H   0  0  0  0  0  0  0  0  0  0  0  0
    5.4641    1.5250    0.0000 H   0  0  0  0  0  0  0  0  0  0  0  0
    6.8671   -0.9050    0.0000 H   0  0  0  0  0  0  0  0  0  0  0  0
    8.6822    3.4050    0.0000 H   0  0  0  0  0  0  0  0  0  0  0  0
    8.0622    4.0250    0.0000 H   0  0  0  0  0  0  0  0  0  0  0  0
    7.4422    3.4050    0.0000 H   0  0  0  0  0  0  0  0  0  0  0  0
    5.4641    1.2850    0.0000 H   0  0  0  0  0  0  0  0  0  0  0  0
   10.9331    1.2990    0.0000 H   0  0  0  0  0  0  0  0  0  0  0  0
    4.0611    0.7150    0.0000 H   0  0  0  0  0  0  0  0  0  0  0  0
    5.4641   -1.7150    0.0000 H   0  0  0  0  0  0  0  0  0  0  0  0
   10.9331   -1.4890    0.0000 H   0  0  0  0  0  0  0  0  0  0  0  0
    5.4641    4.5250    0.0000 H   0  0  0  0  0  0  0  0  0  0  0  0
    4.0611    2.0950    0.0000 H   0  0  0  0  0  0  0  0  0  0  0  0
    3.1951   -0.7850    0.0000 H   0  0  0  0  0  0  0  0  0  0  0  0
    4.2690   -2.4050    0.0000 H   0  0  0  0  0  0  0  0  0  0  0  0
    2.3291   -3.9050    0.0000 H   0  0  0  0  0  0  0  0  0  0  0  0
  1 21  1  0  0  0  0
  2 29  1  0  0  0  0
  3 32  1  0  0  0  0
  3 52  1  0  0  0  0
  4 32  2  0  0  0  0
  5  6  1  0  0  0  0
  5 16  1  0  0  0  0
  5 47  1  0  0  0  0
  6 23  2  0  0  0  0
  7  8  2  0  0  0  0
  7  9  1  0  0  0  0
  7 11  1  0  0  0  0
  8 10  1  0  0  0  0
  8 12  1  0  0  0  0
  9 13  2  0  0  0  0
  9 15  1  0  0  0  0
 10 20  1  0  0  0  0
 10 33  1  0  0  0  0
 10 34  1  0  0  0  0
 11 18  2  0  0  0  0
 11 19  1  0  0  0  0
 12 21  2  0  0  0  0
 12 22  1  0  0  0  0
 13 14  1  0  0  0  0
 13 35  1  0  0  0  0
 14 16  2  0  0  0  0
 14 23  1  0  0  0  0
 15 17  2  0  0  0  0
 15 36  1  0  0  0  0
 16 17  1  0  0  0  0
 17 37  1  0  0  0  0
 18 24  1  0  0  0  0
 18 38  1  0  0  0  0
 19 25  2  0  0  0  0
 19 39  1  0  0  0  0
 20 40  1  0  0  0  0
 20 41  1  0  0  0  0
 20 42  1  0  0  0  0
 21 27  1  0  0  0  0
 22 28  2  0  0  0  0
 22 43  1  0  0  0  0
 23 44  1  0  0  0  0
 24 26  2  0  0  0  0
 24 45  1  0  0  0  0
 25 26  1  0  0  0  0
 25 46  1  0  0  0  0
 26 30  1  0  0  0  0
 27 29  2  0  0  0  0
 27 48  1  0  0  0  0
 28 29  1  0  0  0  0
 28 49  1  0  0  0  0
 30 31  2  0  0  0  0
 30 50  1  0  0  0  0
 31 32  1  0  0  0  0
 31 51  1  0  0  0  0
M  END
> <PUBCHEM_COMPOUND_CID>
56941241

> <PUBCHEM_COMPOUND_CANONICALIZED>
1

> <PUBCHEM_CACTVS_COMPLEXITY>
719

> <PUBCHEM_CACTVS_HBOND_ACCEPTOR>
4

> <PUBCHEM_CACTVS_HBOND_DONOR>
2

> <PUBCHEM_CACTVS_ROTATABLE_BOND>
6

> <PUBCHEM_CACTVS_SUBSKEYS>
AAADceB7MQAEAAAAAAAAAAAAAAAAAWAAAAAwYMAAAAAAAFgB9AAAHwIYCAAADArBniw+yPBjAgCqAzT3SACSBAAghwAYuSAwZtgIJKKB09GAtABgmAAI2YcQgMAOSAACAAADAACQAAQAAAYAAAAAAAAAAA==

> <PUBCHEM_IUPAC_OPENEYE_NAME>
(E)-3-[4-[(E)-2-(2-chloro-4-fluoro-phenyl)-1-(1H-indazol-5-yl)but-1-enyl]phenyl]prop-2-enoic acid

> <PUBCHEM_IUPAC_CAS_NAME>
(E)-3-[4-[(E)-2-(2-chloro-4-fluorophenyl)-1-(1H-indazol-5-yl)but-1-enyl]phenyl]-2-propenoic acid

> <PUBCHEM_IUPAC_NAME_MARKUP>
(<I>E</I>)-3-[4-[(<I>E</I>)-2-(2-chloro-4-fluorophenyl)-1-(1<I>H</I>-indazol-5-yl)but-1-enyl]phenyl]prop-2-enoic acid

> <PUBCHEM_IUPAC_NAME>
(E)-3-[4-[(E)-2-(2-chloro-4-fluorophenyl)-1-(1H-indazol-5-yl)but-1-enyl]phenyl]prop-2-enoic acid

> <PUBCHEM_IUPAC_SYSTEMATIC_NAME>
(E)-3-[4-[(E)-2-(2-chloranyl-4-fluoranyl-phenyl)-1-(1H-indazol-5-yl)but-1-enyl]phenyl]prop-2-enoic acid

> <PUBCHEM_IUPAC_TRADITIONAL_NAME>
(E)-3-[4-[(E)-2-(2-chloro-4-fluoro-phenyl)-1-(1H-indazol-5-yl)but-1-enyl]phenyl]acrylic acid

> <PUBCHEM_IUPAC_INCHI>
InChI=1S/C26H20ClFN2O2/c1-2-21(22-10-9-20(28)14-23(22)27)26(18-8-11-24-19(13-18)15-29-30-24)17-6-3-16(4-7-17)5-12-25(31)32/h3-15H,2H2,1H3,(H,29,30)(H,31,32)/b12-5+,26-21+

> <PUBCHEM_IUPAC_INCHIKEY>
BURHGPHDEVGCEZ-KJGLQBJMSA-N

> <PUBCHEM_XLOGP3_AA>
7.4

> <PUBCHEM_EXACT_MASS>
446.119734

> <PUBCHEM_MOLECULAR_FORMULA>
C26H20ClFN2O2

> <PUBCHEM_MOLECULAR_WEIGHT>
446.9

> <PUBCHEM_OPENEYE_CAN_SMILES>
CCC(=C(C1=CC=C(C=C1)C=CC(=O)O)C2=CC3=C(C=C2)NN=C3)C4=C(C=C(C=C4)F)Cl

> <PUBCHEM_OPENEYE_ISO_SMILES>
CC/C(=C(/C1=CC=C(C=C1)/C=C/C(=O)O)\C2=CC3=C(C=C2)NN=C3)/C4=C(C=C(C=C4)F)Cl

> <PUBCHEM_CACTVS_TPSA>
66

> <PUBCHEM_MONOISOTOPIC_WEIGHT>
446.119734

> <PUBCHEM_TOTAL_CHARGE>
0

> <PUBCHEM_HEAVY_ATOM_COUNT>
32

> <PUBCHEM_ATOM_DEF_STEREO_COUNT>
0

> <PUBCHEM_ATOM_UDEF_STEREO_COUNT>
0

> <PUBCHEM_BOND_DEF_STEREO_COUNT>
2

> <PUBCHEM_BOND_UDEF_STEREO_COUNT>
0

> <PUBCHEM_ISOTOPIC_ATOM_COUNT>
0

> <PUBCHEM_COMPONENT_COUNT>
1

> <PUBCHEM_CACTVS_TAUTO_COUNT>
-1

> <PUBCHEM_COORDINATE_TYPE>
1
5
255

> <PUBCHEM_BONDANNOTATIONS>
11  18  8
11  19  8
12  21  8
12  22  8
13  14  8
14  16  8
14  23  8
15  17  8
16  17  8
18  24  8
19  25  8
21  27  8
22  28  8
24  26  8
25  26  8
27  29  8
28  29  8
5  16  8
5  6  8
6  23  8
9  13  8
9  15  8

$$$$
16224745
  -OEChem-02182015172D

 41 44  0     1  0  0  0  0  0999 V2000
    3.7320   -1.6695    0.0000 Br  0  0  0  0  0  0  0  0  0  0  0  0
    2.8660    1.8305    0.0000 N   0  0  0  0  0  0  0  0  0  0  0  0
    5.4641    0.3305    0.0000 N   0  0  0  0  0  0  0  0  0  0  0  0
    6.3301   -1.1695    0.0000 N   0  0  0  0  0  0  0  0  0  0  0  0
    7.2764   -1.4742    0.0000 N   0  0  0  0  0  0  0  0  0  0  0  0
    5.4641   -2.6695    0.0000 N   0  0  0  0  0  0  0  0  0  0  0  0
    8.5403    2.3931    0.0000 N   0  0  0  0  0  0  0  0  0  0  0  0
    7.5898    2.7038    0.0000 N   0  0  0  0  0  0  0  0  0  0  0  0
    3.7320    0.3305    0.0000 C   0  0  3  0  0  0  0  0  0  0  0  0
    2.8660   -0.1695    0.0000 C   0  0  0  0  0  0  0  0  0  0  0  0
    3.7320    1.3305    0.0000 C   0  0  0  0  0  0  0  0  0  0  0  0
    2.0000    0.3305    0.0000 C   0  0  0  0  0  0  0  0  0  0  0  0
    2.0000    1.3305    0.0000 C   0  0  0  0  0  0  0  0  0  0  0  0
    4.5981   -0.1695    0.0000 C   0  0  0  0  0  0  0  0  0  0  0  0
    4.5981   -1.1695    0.0000 C   0  0  0  0  0  0  0  0  0  0  0  0
    6.3301   -0.1695    0.0000 C   0  0  0  0  0  0  0  0  0  0  0  0
    5.4641   -1.6695    0.0000 C   0  0  0  0  0  0  0  0  0  0  0  0
    7.2764    0.1352    0.0000 C   0  0  0  0  0  0  0  0  0  0  0  0
    7.5870    1.0858    0.0000 C   0  0  0  0  0  0  0  0  0  0  0  0
    7.8600   -0.6695    0.0000 C   0  0  0  0  0  0  0  0  0  0  0  0
    8.5386    1.3931    0.0000 C   0  0  0  0  0  0  0  0  0  0  0  0
    7.0006    1.8958    0.0000 C   0  0  0  0  0  0  0  0  0  0  0  0
    9.3504    2.9795    0.0000 C   0  0  0  0  0  0  0  0  0  0  0  0
    3.7320   -0.2895    0.0000 H   0  0  0  0  0  0  0  0  0  0  0  0
    2.4675   -0.6445    0.0000 H   0  0  0  0  0  0  0  0  0  0  0  0
    3.2646   -0.6445    0.0000 H   0  0  0  0  0  0  0  0  0  0  0  0
    4.3426    1.2228    0.0000 H   0  0  0  0  0  0  0  0  0  0  0  0
    3.9441    1.9131    0.0000 H   0  0  0  0  0  0  0  0  0  0  0  0
    1.3894    0.4382    0.0000 H   0  0  0  0  0  0  0  0  0  0  0  0
    1.7880   -0.2521    0.0000 H   0  0  0  0  0  0  0  0  0  0  0  0
    1.7880    1.9131    0.0000 H   0  0  0  0  0  0  0  0  0  0  0  0
    1.3894    1.2228    0.0000 H   0  0  0  0  0  0  0  0  0  0  0  0
    2.8660    2.4505    0.0000 H   0  0  0  0  0  0  0  0  0  0  0  0
    8.4800   -0.6695    0.0000 H   0  0  0  0  0  0  0  0  0  0  0  0
    4.9272   -2.9795    0.0000 H   0  0  0  0  0  0  0  0  0  0  0  0
    6.0010   -2.9795    0.0000 H   0  0  0  0  0  0  0  0  0  0  0  0
    9.0396    1.0278    0.0000 H   0  0  0  0  0  0  0  0  0  0  0  0
    6.3806    1.8969    0.0000 H   0  0  0  0  0  0  0  0  0  0  0  0
    9.7139    2.4773    0.0000 H   0  0  0  0  0  0  0  0  0  0  0  0
    9.8526    3.3431    0.0000 H   0  0  0  0  0  0  0  0  0  0  0  0
    8.9868    3.4817    0.0000 H   0  0  0  0  0  0  0  0  0  0  0  0
  1 15  1  0  0  0  0
  2 11  1  0  0  0  0
  2 13  1  0  0  0  0
  2 33  1  0  0  0  0
  3 14  2  0  0  0  0
  3 16  1  0  0  0  0
  4  5  1  0  0  0  0
  4 16  1  0  0  0  0
  4 17  1  0  0  0  0
  5 20  2  0  0  0  0
  6 17  1  0  0  0  0
  6 35  1  0  0  0  0
  6 36  1  0  0  0  0
  7  8  1  0  0  0  0
  7 21  1  0  0  0  0
  7 23  1  0  0  0  0
  8 22  2  0  0  0  0
  9 10  1  0  0  0  0
  9 11  1  0  0  0  0
  9 14  1  0  0  0  0
  9 24  1  0  0  0  0
 10 12  1  0  0  0  0
 10 25  1  0  0  0  0
 10 26  1  0  0  0  0
 11 27  1  0  0  0  0
 11 28  1  0  0  0  0
 12 13  1  0  0  0  0
 12 29  1  0  0  0  0
 12 30  1  0  0  0  0
 13 31  1  0  0  0  0
 13 32  1  0  0  0  0
 14 15  1  0  0  0  0
 15 17  2  0  0  0  0
 16 18  2  0  0  0  0
 18 19  1  0  0  0  0
 18 20  1  0  0  0  0
 19 21  2  0  0  0  0
 19 22  1  0  0  0  0
 20 34  1  0  0  0  0
 21 37  1  0  0  0  0
 22 38  1  0  0  0  0
 23 39  1  0  0  0  0
 23 40  1  0  0  0  0
 23 41  1  0  0  0  0
M  END
> <PUBCHEM_COMPOUND_CID>
16224745

> <PUBCHEM_COMPOUND_CANONICALIZED>
1

> <PUBCHEM_CACTVS_COMPLEXITY>
425

> <PUBCHEM_CACTVS_HBOND_ACCEPTOR>
5

> <PUBCHEM_CACTVS_HBOND_DONOR>
2

> <PUBCHEM_CACTVS_ROTATABLE_BOND>
2

> <PUBCHEM_CACTVS_SUBSKEYS>
AAADceBzgAAAEAAAAAAAAAAAAAAAAWLAAAAsWAAAAAAAAFgB+AAAHABYAAABrQjBHwQvsJ7IEACiAxZnZACShCsxgKQV2KA4RLiIKMJA2cGEhAh4mALISCMQgAAOgAAAAAAAAAAAAAAAAAAAAAAAAAAAAA==

> <PUBCHEM_IUPAC_OPENEYE_NAME>
6-bromo-3-(1-methylpyrazol-4-yl)-5-(3-piperidyl)pyrazolo[1,5-a]pyrimidin-7-amine

> <PUBCHEM_IUPAC_CAS_NAME>
6-bromo-3-(1-methyl-4-pyrazolyl)-5-(3-piperidinyl)-7-pyrazolo[1,5-a]pyrimidinamine

> <PUBCHEM_IUPAC_NAME_MARKUP>
6-bromo-3-(1-methylpyrazol-4-yl)-5-piperidin-3-ylpyrazolo[1,5-a]pyrimidin-7-amine

> <PUBCHEM_IUPAC_NAME>
6-bromo-3-(1-methylpyrazol-4-yl)-5-piperidin-3-ylpyrazolo[1,5-a]pyrimidin-7-amine

> <PUBCHEM_IUPAC_SYSTEMATIC_NAME>
6-bromanyl-3-(1-methylpyrazol-4-yl)-5-piperidin-3-yl-pyrazolo[1,5-a]pyrimidin-7-amine

> <PUBCHEM_IUPAC_TRADITIONAL_NAME>
[6-bromo-3-(1-methylpyrazol-4-yl)-5-(3-piperidyl)pyrazolo[1,5-a]pyrimidin-7-yl]amine

> <PUBCHEM_IUPAC_INCHI>
InChI=1S/C15H18BrN7/c1-22-8-10(6-19-22)11-7-20-23-14(17)12(16)13(21-15(11)23)9-3-2-4-18-5-9/h6-9,18H,2-5,17H2,1H3

> <PUBCHEM_IUPAC_INCHIKEY>
GMIZZEXBPRLVIV-UHFFFAOYSA-N

> <PUBCHEM_XLOGP3_AA>
0.8

> <PUBCHEM_EXACT_MASS>
375.08071

> <PUBCHEM_MOLECULAR_FORMULA>
C15H18BrN7

> <PUBCHEM_MOLECULAR_WEIGHT>
376.25

> <PUBCHEM_OPENEYE_CAN_SMILES>
CN1C=C(C=N1)C2=C3N=C(C(=C(N3N=C2)N)Br)C4CCCNC4

> <PUBCHEM_OPENEYE_ISO_SMILES>
CN1C=C(C=N1)C2=C3N=C(C(=C(N3N=C2)N)Br)C4CCCNC4

> <PUBCHEM_CACTVS_TPSA>
86.1

> <PUBCHEM_MONOISOTOPIC_WEIGHT>
375.08071

> <PUBCHEM_TOTAL_CHARGE>
0

> <PUBCHEM_HEAVY_ATOM_COUNT>
23

> <PUBCHEM_ATOM_DEF_STEREO_COUNT>
0

> <PUBCHEM_ATOM_UDEF_STEREO_COUNT>
1

> <PUBCHEM_BOND_DEF_STEREO_COUNT>
0

> <PUBCHEM_BOND_UDEF_STEREO_COUNT>
0

> <PUBCHEM_ISOTOPIC_ATOM_COUNT>
0

> <PUBCHEM_COMPONENT_COUNT>
1

> <PUBCHEM_CACTVS_TAUTO_COUNT>
-1

> <PUBCHEM_COORDINATE_TYPE>
1
5
255

> <PUBCHEM_BONDANNOTATIONS>
14  15  8
15  17  8
16  18  8
18  20  8
19  21  8
19  22  8
3  14  8
3  16  8
4  16  8
4  17  8
4  5  8
5  20  8
7  21  8
7  8  8
8  22  8
9  14  3

$$$$
60750
  -OEChem-02182015172D

 29 30  0     1  0  0  0  0  0999 V2000
    6.2068   -1.5947    0.0000 F   0  0  0  0  0  0  0  0  0  0  0  0
    5.8435   -0.4766    0.0000 F   0  0  0  0  0  0  0  0  0  0  0  0
    3.6377   -1.2857    0.0000 O   0  0  0  0  0  0  0  0  0  0  0  0
    5.5345   -3.0457    0.0000 O   0  0  0  0  0  0  0  0  0  0  0  0
    2.3644   -2.9412    0.0000 O   0  0  0  0  0  0  0  0  0  0  0  0
    6.1788    0.3021    0.0000 O   0  0  0  0  0  0  0  0  0  0  0  0
    4.4467    0.3021    0.0000 N   0  0  0  0  0  0  0  0  0  0  0  0
    5.3128    1.8021    0.0000 N   0  0  0  0  0  0  0  0  0  0  0  0
    4.4467    3.3021    0.0000 N   0  0  0  0  0  0  0  0  0  0  0  0
    4.9467   -2.2367    0.0000 C   0  0  1  0  0  0  0  0  0  0  0  0
    5.2558   -1.2857    0.0000 C   0  0  0  0  0  0  0  0  0  0  0  0
    3.9467   -2.2367    0.0000 C   0  0  1  0  0  0  0  0  0  0  0  0
    4.4467   -0.6979    0.0000 C   0  0  1  0  0  0  0  0  0  0  0  0
    3.3590   -3.0457    0.0000 C   0  0  0  0  0  0  0  0  0  0  0  0
    3.5807    0.8021    0.0000 C   0  0  0  0  0  0  0  0  0  0  0  0
    5.3128    0.8021    0.0000 C   0  0  0  0  0  0  0  0  0  0  0  0
    3.5807    1.8021    0.0000 C   0  0  0  0  0  0  0  0  0  0  0  0
    4.4467    2.3021    0.0000 C   0  0  0  0  0  0  0  0  0  0  0  0
    4.6653   -2.7891    0.0000 H   0  0  0  0  0  0  0  0  0  0  0  0
    3.3344   -2.1397    0.0000 H   0  0  0  0  0  0  0  0  0  0  0  0
    3.8943   -0.4164    0.0000 H   0  0  0  0  0  0  0  0  0  0  0  0
    3.1880   -3.6417    0.0000 H   0  0  0  0  0  0  0  0  0  0  0  0
    3.9162   -3.3175    0.0000 H   0  0  0  0  0  0  0  0  0  0  0  0
    5.2823   -3.6121    0.0000 H   0  0  0  0  0  0  0  0  0  0  0  0
    3.0438    0.4921    0.0000 H   0  0  0  0  0  0  0  0  0  0  0  0
    2.0000   -3.4428    0.0000 H   0  0  0  0  0  0  0  0  0  0  0  0
    3.0438    2.1121    0.0000 H   0  0  0  0  0  0  0  0  0  0  0  0
    3.9098    3.6121    0.0000 H   0  0  0  0  0  0  0  0  0  0  0  0
    4.9837    3.6121    0.0000 H   0  0  0  0  0  0  0  0  0  0  0  0
  1 11  1  0  0  0  0
  2 11  1  0  0  0  0
  3 12  1  0  0  0  0
  3 13  1  0  0  0  0
 10  4  1  6  0  0  0
  4 24  1  0  0  0  0
  5 14  1  0  0  0  0
  5 26  1  0  0  0  0
  6 16  2  0  0  0  0
 13  7  1  1  0  0  0
  7 15  1  0  0  0  0
  7 16  1  0  0  0  0
  8 16  1  0  0  0  0
  8 18  2  0  0  0  0
  9 18  1  0  0  0  0
  9 28  1  0  0  0  0
  9 29  1  0  0  0  0
 10 11  1  0  0  0  0
 10 12  1  0  0  0  0
 10 19  1  0  0  0  0
 11 13  1  0  0  0  0
 12 14  1  1  0  0  0
 12 20  1  0  0  0  0
 13 21  1  0  0  0  0
 14 22  1  0  0  0  0
 14 23  1  0  0  0  0
 15 17  2  0  0  0  0
 15 25  1  0  0  0  0
 17 18  1  0  0  0  0
 17 27  1  0  0  0  0
M  END
> <PUBCHEM_COMPOUND_CID>
60750

> <PUBCHEM_COMPOUND_CANONICALIZED>
1

> <PUBCHEM_CACTVS_COMPLEXITY>
426

> <PUBCHEM_CACTVS_HBOND_ACCEPTOR>
6

> <PUBCHEM_CACTVS_HBOND_DONOR>
3

> <PUBCHEM_CACTVS_ROTATABLE_BOND>
2

> <PUBCHEM_CACTVS_SUBSKEYS>
AAADccBzOYAAAAAAAAAAAAAAAAAAASAAAAAgAAAAAAAAAAAAAAAAHwAQCAAACBThgBYBAANABgCoACJmdACAAAEAAgAIAAAYABCBEAIAgAAOQAAHFgIDAACwMAIAAAAAAAAAAAAAAAAAAAAAAAAAAAAAAA==

> <PUBCHEM_IUPAC_OPENEYE_NAME>
4-amino-1-[(2R,4R,5R)-3,3-difluoro-4-hydroxy-5-(hydroxymethyl)tetrahydrofuran-2-yl]pyrimidin-2-one

> <PUBCHEM_IUPAC_CAS_NAME>
4-amino-1-[(2R,4R,5R)-3,3-difluoro-4-hydroxy-5-(hydroxymethyl)-2-oxolanyl]-2-pyrimidinone

> <PUBCHEM_IUPAC_NAME_MARKUP>
4-amino-1-[(2<I>R</I>,4<I>R</I>,5<I>R</I>)-3,3-difluoro-4-hydroxy-5-(hydroxymethyl)oxolan-2-yl]pyrimidin-2-one

> <PUBCHEM_IUPAC_NAME>
4-amino-1-[(2R,4R,5R)-3,3-difluoro-4-hydroxy-5-(hydroxymethyl)oxolan-2-yl]pyrimidin-2-one

> <PUBCHEM_IUPAC_SYSTEMATIC_NAME>
4-azanyl-1-[(2R,4R,5R)-3,3-bis(fluoranyl)-5-(hydroxymethyl)-4-oxidanyl-oxolan-2-yl]pyrimidin-2-one

> <PUBCHEM_IUPAC_TRADITIONAL_NAME>
4-amino-1-[(2R,4R,5R)-3,3-difluoro-4-hydroxy-5-methylol-tetrahydrofuran-2-yl]pyrimidin-2-one

> <PUBCHEM_IUPAC_INCHI>
InChI=1S/C9H11F2N3O4/c10-9(11)6(16)4(3-15)18-7(9)14-2-1-5(12)13-8(14)17/h1-2,4,6-7,15-16H,3H2,(H2,12,13,17)/t4-,6-,7-/m1/s1

> <PUBCHEM_IUPAC_INCHIKEY>
SDUQYLNIPVEERB-QPPQHZFASA-N

> <PUBCHEM_XLOGP3>
-1.5

> <PUBCHEM_EXACT_MASS>
263.071762

> <PUBCHEM_MOLECULAR_FORMULA>
C9H11F2N3O4

> <PUBCHEM_MOLECULAR_WEIGHT>
263.2

> <PUBCHEM_OPENEYE_CAN_SMILES>
C1=CN(C(=O)N=C1N)C2C(C(C(O2)CO)O)(F)F

> <PUBCHEM_OPENEYE_ISO_SMILES>
C1=CN(C(=O)N=C1N)[C@H]2C([C@@H]([C@H](O2)CO)O)(F)F

> <PUBCHEM_CACTVS_TPSA>
108

> <PUBCHEM_MONOISOTOPIC_WEIGHT>
263.071762

> <PUBCHEM_TOTAL_CHARGE>
0

> <PUBCHEM_HEAVY_ATOM_COUNT>
18

> <PUBCHEM_ATOM_DEF_STEREO_COUNT>
3

> <PUBCHEM_ATOM_UDEF_STEREO_COUNT>
0

> <PUBCHEM_BOND_DEF_STEREO_COUNT>
0

> <PUBCHEM_BOND_UDEF_STEREO_COUNT>
0

> <PUBCHEM_ISOTOPIC_ATOM_COUNT>
0

> <PUBCHEM_COMPONENT_COUNT>
1

> <PUBCHEM_CACTVS_TAUTO_COUNT>
-1

> <PUBCHEM_COORDINATE_TYPE>
1
5
255

> <PUBCHEM_BONDANNOTATIONS>
12  14  5
15  17  8
17  18  8
10  4  6
13  7  5
7  15  8
7  16  8
8  16  8
8  18  8

$$$$
1401
  -OEChem-02182015172D

 79 81  0     0  0  0  0  0  0999 V2000
    6.3301   -2.2500    0.0000 O   0  0  0  0  0  0  0  0  0  0  0  0
    4.5981    3.7500    0.0000 O   0  0  0  0  0  0  0  0  0  0  0  0
    2.8660    0.7500    0.0000 O   0  0  0  0  0  0  0  0  0  0  0  0
   15.0583   -0.2908    0.0000 N   0  0  0  0  0  0  0  0  0  0  0  0
   10.7263   -0.7742    0.0000 N   0  0  0  0  0  0  0  0  0  0  0  0
    4.5981   -2.2500    0.0000 N   0  0  0  0  0  0  0  0  0  0  0  0
    5.4641   -0.7500    0.0000 N   0  0  0  0  0  0  0  0  0  0  0  0
    8.9561   -0.7847    0.0000 N   0  0  0  0  0  0  0  0  0  0  0  0
    7.1962   -0.7500    0.0000 N   0  0  0  0  0  0  0  0  0  0  0  0
    9.8622    0.7708    0.0000 N   0  0  0  0  0  0  0  0  0  0  0  0
   14.1904   -0.7875    0.0000 C   0  0  0  0  0  0  0  0  0  0  0  0
   13.3263   -0.2842    0.0000 C   0  0  0  0  0  0  0  0  0  0  0  0
   12.4583   -0.7808    0.0000 C   0  0  0  0  0  0  0  0  0  0  0  0
   15.9224   -0.7942    0.0000 C   0  0  0  0  0  0  0  0  0  0  0  0
   15.0622    0.7091    0.0000 C   0  0  0  0  0  0  0  0  0  0  0  0
   11.5942   -0.2775    0.0000 C   0  0  0  0  0  0  0  0  0  0  0  0
    4.5981   -3.2500    0.0000 C   0  0  0  0  0  0  0  0  0  0  0  0
   16.7903   -0.2975    0.0000 C   0  0  0  0  0  0  0  0  0  0  0  0
   15.9301    1.2058    0.0000 C   0  0  0  0  0  0  0  0  0  0  0  0
    4.5981   -4.2500    0.0000 C   0  0  0  0  0  0  0  0  0  0  0  0
    3.5981   -3.2500    0.0000 C   0  0  0  0  0  0  0  0  0  0  0  0
    5.5981   -3.2500    0.0000 C   0  0  0  0  0  0  0  0  0  0  0  0
    9.8622   -0.2708    0.0000 C   0  0  0  0  0  0  0  0  0  0  0  0
    6.3301    0.7500    0.0000 C   0  0  0  0  0  0  0  0  0  0  0  0
    6.3301   -0.2500    0.0000 C   0  0  0  0  0  0  0  0  0  0  0  0
    5.4641   -1.7500    0.0000 C   0  0  0  0  0  0  0  0  0  0  0  0
    8.0622    0.7500    0.0000 C   0  0  0  0  0  0  0  0  0  0  0  0
    8.0622   -0.2500    0.0000 C   0  0  0  0  0  0  0  0  0  0  0  0
    7.1962    1.2500    0.0000 C   0  0  0  0  0  0  0  0  0  0  0  0
    5.4641    1.2500    0.0000 C   0  0  0  0  0  0  0  0  0  0  0  0
    8.9561    1.2847    0.0000 C   0  0  0  0  0  0  0  0  0  0  0  0
    4.5981    0.7500    0.0000 C   0  0  0  0  0  0  0  0  0  0  0  0
    5.4641    2.2500    0.0000 C   0  0  0  0  0  0  0  0  0  0  0  0
    4.5981    2.7500    0.0000 C   0  0  0  0  0  0  0  0  0  0  0  0
    3.7320    1.2500    0.0000 C   0  0  0  0  0  0  0  0  0  0  0  0
    3.7320    2.2500    0.0000 C   0  0  0  0  0  0  0  0  0  0  0  0
    3.7320    4.2500    0.0000 C   0  0  0  0  0  0  0  0  0  0  0  0
    2.0000    1.2500    0.0000 C   0  0  0  0  0  0  0  0  0  0  0  0
   13.7900   -1.2609    0.0000 H   0  0  0  0  0  0  0  0  0  0  0  0
   14.5870   -1.2640    0.0000 H   0  0  0  0  0  0  0  0  0  0  0  0
   13.7266    0.1892    0.0000 H   0  0  0  0  0  0  0  0  0  0  0  0
   12.9296    0.1923    0.0000 H   0  0  0  0  0  0  0  0  0  0  0  0
   12.0580   -1.2542    0.0000 H   0  0  0  0  0  0  0  0  0  0  0  0
   12.8550   -1.2573    0.0000 H   0  0  0  0  0  0  0  0  0  0  0  0
   15.5220   -1.2676    0.0000 H   0  0  0  0  0  0  0  0  0  0  0  0
   16.3191   -1.2707    0.0000 H   0  0  0  0  0  0  0  0  0  0  0  0
   14.8523    1.2926    0.0000 H   0  0  0  0  0  0  0  0  0  0  0  0
   14.4512    0.6038    0.0000 H   0  0  0  0  0  0  0  0  0  0  0  0
   11.9946    0.1959    0.0000 H   0  0  0  0  0  0  0  0  0  0  0  0
   11.1975    0.1990    0.0000 H   0  0  0  0  0  0  0  0  0  0  0  0
   17.0983   -0.8356    0.0000 H   0  0  0  0  0  0  0  0  0  0  0  0
   17.3285    0.0104    0.0000 H   0  0  0  0  0  0  0  0  0  0  0  0
   16.4824    0.2406    0.0000 H   0  0  0  0  0  0  0  0  0  0  0  0
   16.2380    0.6677    0.0000 H   0  0  0  0  0  0  0  0  0  0  0  0
   16.4682    1.5137    0.0000 H   0  0  0  0  0  0  0  0  0  0  0  0
   15.6222    1.7439    0.0000 H   0  0  0  0  0  0  0  0  0  0  0  0
    3.9781   -4.2500    0.0000 H   0  0  0  0  0  0  0  0  0  0  0  0
    4.5981   -4.8700    0.0000 H   0  0  0  0  0  0  0  0  0  0  0  0
    5.2181   -4.2500    0.0000 H   0  0  0  0  0  0  0  0  0  0  0  0
    3.5981   -2.6300    0.0000 H   0  0  0  0  0  0  0  0  0  0  0  0
    2.9781   -3.2500    0.0000 H   0  0  0  0  0  0  0  0  0  0  0  0
    3.5981   -3.8700    0.0000 H   0  0  0  0  0  0  0  0  0  0  0  0
    5.5981   -3.8700    0.0000 H   0  0  0  0  0  0  0  0  0  0  0  0
    6.2181   -3.2500    0.0000 H   0  0  0  0  0  0  0  0  0  0  0  0
    5.5981   -2.6300    0.0000 H   0  0  0  0  0  0  0  0  0  0  0  0
   10.7239   -1.3942    0.0000 H   0  0  0  0  0  0  0  0  0  0  0  0
    4.0611   -1.9400    0.0000 H   0  0  0  0  0  0  0  0  0  0  0  0
    4.9272   -0.4400    0.0000 H   0  0  0  0  0  0  0  0  0  0  0  0
    7.1962    1.8700    0.0000 H   0  0  0  0  0  0  0  0  0  0  0  0
    8.9490    1.9046    0.0000 H   0  0  0  0  0  0  0  0  0  0  0  0
    4.5981    0.1300    0.0000 H   0  0  0  0  0  0  0  0  0  0  0  0
    6.0010    2.5600    0.0000 H   0  0  0  0  0  0  0  0  0  0  0  0
    3.1951    2.5600    0.0000 H   0  0  0  0  0  0  0  0  0  0  0  0
    4.0420    4.7869    0.0000 H   0  0  0  0  0  0  0  0  0  0  0  0
    3.1951    4.5600    0.0000 H   0  0  0  0  0  0  0  0  0  0  0  0
    3.4220    3.7131    0.0000 H   0  0  0  0  0  0  0  0  0  0  0  0
    2.3100    1.7869    0.0000 H   0  0  0  0  0  0  0  0  0  0  0  0
    1.4631    1.5600    0.0000 H   0  0  0  0  0  0  0  0  0  0  0  0
    1.6900    0.7131    0.0000 H   0  0  0  0  0  0  0  0  0  0  0  0
  1 26  2  0  0  0  0
  2 34  1  0  0  0  0
  2 37  1  0  0  0  0
  3 35  1  0  0  0  0
  3 38  1  0  0  0  0
  4 11  1  0  0  0  0
  4 14  1  0  0  0  0
  4 15  1  0  0  0  0
  5 16  1  0  0  0  0
  5 23  1  0  0  0  0
  5 66  1  0  0  0  0
  6 17  1  0  0  0  0
  6 26  1  0  0  0  0
  6 67  1  0  0  0  0
  7 25  1  0  0  0  0
  7 26  1  0  0  0  0
  7 68  1  0  0  0  0
  8 23  2  0  0  0  0
  8 28  1  0  0  0  0
  9 25  1  0  0  0  0
  9 28  2  0  0  0  0
 10 23  1  0  0  0  0
 10 31  2  0  0  0  0
 11 12  1  0  0  0  0
 11 39  1  0  0  0  0
 11 40  1  0  0  0  0
 12 13  1  0  0  0  0
 12 41  1  0  0  0  0
 12 42  1  0  0  0  0
 13 16  1  0  0  0  0
 13 43  1  0  0  0  0
 13 44  1  0  0  0  0
 14 18  1  0  0  0  0
 14 45  1  0  0  0  0
 14 46  1  0  0  0  0
 15 19  1  0  0  0  0
 15 47  1  0  0  0  0
 15 48  1  0  0  0  0
 16 49  1  0  0  0  0
 16 50  1  0  0  0  0
 17 20  1  0  0  0  0
 17 21  1  0  0  0  0
 17 22  1  0  0  0  0
 18 51  1  0  0  0  0
 18 52  1  0  0  0  0
 18 53  1  0  0  0  0
 19 54  1  0  0  0  0
 19 55  1  0  0  0  0
 19 56  1  0  0  0  0
 20 57  1  0  0  0  0
 20 58  1  0  0  0  0
 20 59  1  0  0  0  0
 21 60  1  0  0  0  0
 21 61  1  0  0  0  0
 21 62  1  0  0  0  0
 22 63  1  0  0  0  0
 22 64  1  0  0  0  0
 22 65  1  0  0  0  0
 24 25  2  0  0  0  0
 24 29  1  0  0  0  0
 24 30  1  0  0  0  0
 27 28  1  0  0  0  0
 27 29  2  0  0  0  0
 27 31  1  0  0  0  0
 29 69  1  0  0  0  0
 30 32  2  0  0  0  0
 30 33  1  0  0  0  0
 31 70  1  0  0  0  0
 32 35  1  0  0  0  0
 32 71  1  0  0  0  0
 33 34  2  0  0  0  0
 33 72  1  0  0  0  0
 34 36  1  0  0  0  0
 35 36  2  0  0  0  0
 36 73  1  0  0  0  0
 37 74  1  0  0  0  0
 37 75  1  0  0  0  0
 37 76  1  0  0  0  0
 38 77  1  0  0  0  0
 38 78  1  0  0  0  0
 38 79  1  0  0  0  0
M  END
> <PUBCHEM_COMPOUND_CID>
1401

> <PUBCHEM_COMPOUND_CANONICALIZED>
1

> <PUBCHEM_CACTVS_COMPLEXITY>
690

> <PUBCHEM_CACTVS_HBOND_ACCEPTOR>
8

> <PUBCHEM_CACTVS_HBOND_DONOR>
3

> <PUBCHEM_CACTVS_ROTATABLE_BOND>
13

> <PUBCHEM_CACTVS_SUBSKEYS>
AAADcfB7sAAAAAAAAAAAAAAAAAAAAAAAAAA8WIAAAAAAAACx/AAAHgAQAAAADIzBmwY/tt/IFACoAjJndACCiCkxIKAB2KAuTJiML+LE+duENCht1RfI6CeQ8P4OgAABCAAAAAAAAAIQAAAAAAAAAAAAAA==

> <PUBCHEM_IUPAC_OPENEYE_NAME>
1-tert-butyl-3-[2-[4-(diethylamino)butylamino]-6-(3,5-dimethoxyphenyl)pyrido[2,3-d]pyrimidin-7-yl]urea

> <PUBCHEM_IUPAC_CAS_NAME>
1-tert-butyl-3-[2-[4-(diethylamino)butylamino]-6-(3,5-dimethoxyphenyl)-7-pyrido[2,3-d]pyrimidinyl]urea

> <PUBCHEM_IUPAC_NAME_MARKUP>
1-<I>tert</I>-butyl-3-[2-[4-(diethylamino)butylamino]-6-(3,5-dimethoxyphenyl)pyrido[2,3-d]pyrimidin-7-yl]urea

> <PUBCHEM_IUPAC_NAME>
1-tert-butyl-3-[2-[4-(diethylamino)butylamino]-6-(3,5-dimethoxyphenyl)pyrido[2,3-d]pyrimidin-7-yl]urea

> <PUBCHEM_IUPAC_SYSTEMATIC_NAME>
1-tert-butyl-3-[2-[4-(diethylamino)butylamino]-6-(3,5-dimethoxyphenyl)pyrido[2,3-d]pyrimidin-7-yl]urea

> <PUBCHEM_IUPAC_TRADITIONAL_NAME>
1-tert-butyl-3-[2-[4-(diethylamino)butylamino]-6-(3,5-dimethoxyphenyl)pyrido[2,3-d]pyrimidin-7-yl]urea

> <PUBCHEM_IUPAC_INCHI>
InChI=1S/C28H41N7O3/c1-8-35(9-2)13-11-10-12-29-26-30-18-20-16-23(19-14-21(37-6)17-22(15-19)38-7)25(31-24(20)32-26)33-27(36)34-28(3,4)5/h14-18H,8-13H2,1-7H3,(H3,29,30,31,32,33,34,36)

> <PUBCHEM_IUPAC_INCHIKEY>
DXCUKNQANPLTEJ-UHFFFAOYSA-N

> <PUBCHEM_XLOGP3_AA>
4.5

> <PUBCHEM_EXACT_MASS>
523.327088

> <PUBCHEM_MOLECULAR_FORMULA>
C28H41N7O3

> <PUBCHEM_MOLECULAR_WEIGHT>
523.7

> <PUBCHEM_OPENEYE_CAN_SMILES>
CCN(CC)CCCCNC1=NC2=NC(=C(C=C2C=N1)C3=CC(=CC(=C3)OC)OC)NC(=O)NC(C)(C)C

> <PUBCHEM_OPENEYE_ISO_SMILES>
CCN(CC)CCCCNC1=NC2=NC(=C(C=C2C=N1)C3=CC(=CC(=C3)OC)OC)NC(=O)NC(C)(C)C

> <PUBCHEM_CACTVS_TPSA>
114

> <PUBCHEM_MONOISOTOPIC_WEIGHT>
523.327088

> <PUBCHEM_TOTAL_CHARGE>
0

> <PUBCHEM_HEAVY_ATOM_COUNT>
38

> <PUBCHEM_ATOM_DEF_STEREO_COUNT>
0

> <PUBCHEM_ATOM_UDEF_STEREO_COUNT>
0

> <PUBCHEM_BOND_DEF_STEREO_COUNT>
0

> <PUBCHEM_BOND_UDEF_STEREO_COUNT>
0

> <PUBCHEM_ISOTOPIC_ATOM_COUNT>
0

> <PUBCHEM_COMPONENT_COUNT>
1

> <PUBCHEM_CACTVS_TAUTO_COUNT>
-1

> <PUBCHEM_COORDINATE_TYPE>
1
5
255

> <PUBCHEM_BONDANNOTATIONS>
10  23  8
10  31  8
24  25  8
24  29  8
27  28  8
27  29  8
27  31  8
30  32  8
30  33  8
32  35  8
33  34  8
34  36  8
35  36  8
8  23  8
8  28  8
9  25  8
9  28  8

$$$$
5311
  -OEChem-02182015172D

 39 39  0     0  0  0  0  0  0999 V2000
    4.5981   -2.4050    0.0000 O   0  0  0  0  0  0  0  0  0  0  0  0
    5.4641    4.0950    0.0000 O   0  0  0  0  0  0  0  0  0  0  0  0
    7.1962    5.0950    0.0000 O   0  0  0  0  0  0  0  0  0  0  0  0
    2.8660   -2.4050    0.0000 N   0  0  0  0  0  0  0  0  0  0  0  0
    7.1962    4.0950    0.0000 N   0  0  0  0  0  0  0  0  0  0  0  0
    4.5981    0.5950    0.0000 C   0  0  0  0  0  0  0  0  0  0  0  0
    5.4641    1.0950    0.0000 C   0  0  0  0  0  0  0  0  0  0  0  0
    4.5981   -0.4050    0.0000 C   0  0  0  0  0  0  0  0  0  0  0  0
    5.4641    2.0950    0.0000 C   0  0  0  0  0  0  0  0  0  0  0  0
    3.7320   -0.9050    0.0000 C   0  0  0  0  0  0  0  0  0  0  0  0
    6.3301    2.5950    0.0000 C   0  0  0  0  0  0  0  0  0  0  0  0
    3.7320   -1.9050    0.0000 C   0  0  0  0  0  0  0  0  0  0  0  0
    6.3301    3.5950    0.0000 C   0  0  0  0  0  0  0  0  0  0  0  0
    2.8660   -3.4050    0.0000 C   0  0  0  0  0  0  0  0  0  0  0  0
    2.0000   -3.9050    0.0000 C   0  0  0  0  0  0  0  0  0  0  0  0
    3.7320   -3.9050    0.0000 C   0  0  0  0  0  0  0  0  0  0  0  0
    2.0000   -4.9050    0.0000 C   0  0  0  0  0  0  0  0  0  0  0  0
    3.7320   -4.9050    0.0000 C   0  0  0  0  0  0  0  0  0  0  0  0
    2.8660   -5.4050    0.0000 C   0  0  0  0  0  0  0  0  0  0  0  0
    4.3860    1.1776    0.0000 H   0  0  0  0  0  0  0  0  0  0  0  0
    3.9875    0.4873    0.0000 H   0  0  0  0  0  0  0  0  0  0  0  0
    5.6762    0.5124    0.0000 H   0  0  0  0  0  0  0  0  0  0  0  0
    6.0747    1.2027    0.0000 H   0  0  0  0  0  0  0  0  0  0  0  0
    4.8101   -0.9876    0.0000 H   0  0  0  0  0  0  0  0  0  0  0  0
    5.2087   -0.2973    0.0000 H   0  0  0  0  0  0  0  0  0  0  0  0
    5.2520    2.6776    0.0000 H   0  0  0  0  0  0  0  0  0  0  0  0
    4.8535    1.9873    0.0000 H   0  0  0  0  0  0  0  0  0  0  0  0
    3.5200   -0.3224    0.0000 H   0  0  0  0  0  0  0  0  0  0  0  0
    3.1215   -1.0127    0.0000 H   0  0  0  0  0  0  0  0  0  0  0  0
    6.5422    2.0124    0.0000 H   0  0  0  0  0  0  0  0  0  0  0  0
    6.9407    2.7027    0.0000 H   0  0  0  0  0  0  0  0  0  0  0  0
    2.3291   -2.0950    0.0000 H   0  0  0  0  0  0  0  0  0  0  0  0
    7.7331    3.7850    0.0000 H   0  0  0  0  0  0  0  0  0  0  0  0
    1.4631   -3.5950    0.0000 H   0  0  0  0  0  0  0  0  0  0  0  0
    4.2690   -3.5950    0.0000 H   0  0  0  0  0  0  0  0  0  0  0  0
    1.4631   -5.2150    0.0000 H   0  0  0  0  0  0  0  0  0  0  0  0
    4.2690   -5.2150    0.0000 H   0  0  0  0  0  0  0  0  0  0  0  0
    2.8660   -6.0250    0.0000 H   0  0  0  0  0  0  0  0  0  0  0  0
    7.7331    5.4050    0.0000 H   0  0  0  0  0  0  0  0  0  0  0  0
  1 12  2  0  0  0  0
  2 13  2  0  0  0  0
  3  5  1  0  0  0  0
  3 39  1  0  0  0  0
  4 12  1  0  0  0  0
  4 14  1  0  0  0  0
  4 32  1  0  0  0  0
  5 13  1  0  0  0  0
  5 33  1  0  0  0  0
  6  7  1  0  0  0  0
  6  8  1  0  0  0  0
  6 20  1  0  0  0  0
  6 21  1  0  0  0  0
  7  9  1  0  0  0  0
  7 22  1  0  0  0  0
  7 23  1  0  0  0  0
  8 10  1  0  0  0  0
  8 24  1  0  0  0  0
  8 25  1  0  0  0  0
  9 11  1  0  0  0  0
  9 26  1  0  0  0  0
  9 27  1  0  0  0  0
 10 12  1  0  0  0  0
 10 28  1  0  0  0  0
 10 29  1  0  0  0  0
 11 13  1  0  0  0  0
 11 30  1  0  0  0  0
 11 31  1  0  0  0  0
 14 15  2  0  0  0  0
 14 16  1  0  0  0  0
 15 17  1  0  0  0  0
 15 34  1  0  0  0  0
 16 18  2  0  0  0  0
 16 35  1  0  0  0  0
 17 19  2  0  0  0  0
 17 36  1  0  0  0  0
 18 19  1  0  0  0  0
 18 37  1  0  0  0  0
 19 38  1  0  0  0  0
M  END
> <PUBCHEM_COMPOUND_CID>
5311

> <PUBCHEM_COMPOUND_CANONICALIZED>
1

> <PUBCHEM_CACTVS_COMPLEXITY>
276

> <PUBCHEM_CACTVS_HBOND_ACCEPTOR>
3

> <PUBCHEM_CACTVS_HBOND_DONOR>
3

> <PUBCHEM_CACTVS_ROTATABLE_BOND>
8

> <PUBCHEM_CACTVS_SUBSKEYS>
AAADceBzMAAAAAAAAAAAAAAAAAAAAAAAAAAwAAAAAAAAAAABAAAAHgAUCAAACAiBkAAwwILQAACIACVSUACCAAAhAgAoiAEAZIgIIDLAkZGEIAhglADIyAcYiICAAAAAAAAAAAAAAAAAAAAAAAAAAAAAAA==

> <PUBCHEM_IUPAC_OPENEYE_NAME>
8-(hydroxyamino)-8-oxo-N-phenyl-octanamide

> <PUBCHEM_IUPAC_CAS_NAME>
N'-hydroxy-N-phenyloctanediamide

> <PUBCHEM_IUPAC_NAME_MARKUP>
<I>N</I>&apos;-hydroxy-<I>N</I>-phenyloctanediamide

> <PUBCHEM_IUPAC_NAME>
N'-hydroxy-N-phenyloctanediamide

> <PUBCHEM_IUPAC_SYSTEMATIC_NAME>
N'-oxidanyl-N-phenyl-octanediamide

> <PUBCHEM_IUPAC_TRADITIONAL_NAME>
8-(hydroxyamino)-8-keto-N-phenyl-caprylamide

> <PUBCHEM_IUPAC_INCHI>
InChI=1S/C14H20N2O3/c17-13(15-12-8-4-3-5-9-12)10-6-1-2-7-11-14(18)16-19/h3-5,8-9,19H,1-2,6-7,10-11H2,(H,15,17)(H,16,18)

> <PUBCHEM_IUPAC_INCHIKEY>
WAEXFXRVDQXREF-UHFFFAOYSA-N

> <PUBCHEM_XLOGP3>
1.9

> <PUBCHEM_EXACT_MASS>
264.147393

> <PUBCHEM_MOLECULAR_FORMULA>
C14H20N2O3

> <PUBCHEM_MOLECULAR_WEIGHT>
264.32

> <PUBCHEM_OPENEYE_CAN_SMILES>
C1=CC=C(C=C1)NC(=O)CCCCCCC(=O)NO

> <PUBCHEM_OPENEYE_ISO_SMILES>
C1=CC=C(C=C1)NC(=O)CCCCCCC(=O)NO

> <PUBCHEM_CACTVS_TPSA>
78.4

> <PUBCHEM_MONOISOTOPIC_WEIGHT>
264.147393

> <PUBCHEM_TOTAL_CHARGE>
0

> <PUBCHEM_HEAVY_ATOM_COUNT>
19

> <PUBCHEM_ATOM_DEF_STEREO_COUNT>
0

> <PUBCHEM_ATOM_UDEF_STEREO_COUNT>
0

> <PUBCHEM_BOND_DEF_STEREO_COUNT>
0

> <PUBCHEM_BOND_UDEF_STEREO_COUNT>
0

> <PUBCHEM_ISOTOPIC_ATOM_COUNT>
0

> <PUBCHEM_COMPONENT_COUNT>
1

> <PUBCHEM_CACTVS_TAUTO_COUNT>
-1

> <PUBCHEM_COORDINATE_TYPE>
1
5
255

> <PUBCHEM_BONDANNOTATIONS>
14  15  8
14  16  8
15  17  8
16  18  8
17  19  8
18  19  8

$$$$
44450571
  -OEChem-02182015172D

 37 40  0     0  0  0  0  0  0999 V2000
    6.8286    0.6865    0.0000 S   0  0  0  0  0  0  0  0  0  0  0  0
    2.9136   -1.3998    0.0000 S   0  0  0  0  0  0  0  0  0  0  0  0
    8.3808   -1.3839    0.0000 O   0  0  0  0  0  0  0  0  0  0  0  0
    5.1650    0.0479    0.0000 N   0  0  0  0  0  0  0  0  0  0  0  0
    6.6595   -0.9227    0.0000 N   0  0  0  0  0  0  0  0  0  0  0  0
   12.1002   -1.2549    0.0000 N   0  0  0  0  0  0  0  0  0  0  0  0
    9.4742    0.2798    0.0000 C   0  0  0  0  0  0  0  0  0  0  0  0
   11.2063    0.2798    0.0000 C   0  0  0  0  0  0  0  0  0  0  0  0
   10.3403    0.7798    0.0000 C   0  0  0  0  0  0  0  0  0  0  0  0
   11.2063   -0.7202    0.0000 C   0  0  0  0  0  0  0  0  0  0  0  0
    4.5772   -0.7611    0.0000 C   0  0  0  0  0  0  0  0  0  0  0  0
    8.6082    0.7798    0.0000 C   0  0  0  0  0  0  0  0  0  0  0  0
    9.4742   -0.7202    0.0000 C   0  0  0  0  0  0  0  0  0  0  0  0
    7.7422    0.2798    0.0000 C   0  0  0  0  0  0  0  0  0  0  0  0
   10.3403   -1.2202    0.0000 C   0  0  0  0  0  0  0  0  0  0  0  0
    3.5827   -0.6566    0.0000 C   0  0  0  0  0  0  0  0  0  0  0  0
    6.1595   -0.0567    0.0000 C   0  0  0  0  0  0  0  0  0  0  0  0
   12.1002    0.8144    0.0000 C   0  0  0  0  0  0  0  0  0  0  0  0
    7.6376   -0.7148    0.0000 C   0  0  0  0  0  0  0  0  0  0  0  0
    3.0827    0.2094    0.0000 C   0  0  0  0  0  0  0  0  0  0  0  0
   13.0063    0.3006    0.0000 C   0  0  0  0  0  0  0  0  0  0  0  0
   13.0063   -0.7411    0.0000 C   0  0  0  0  0  0  0  0  0  0  0  0
    2.1045    0.0015    0.0000 C   0  0  0  0  0  0  0  0  0  0  0  0
    2.0000   -0.9930    0.0000 C   0  0  0  0  0  0  0  0  0  0  0  0
   10.3403    1.3998    0.0000 H   0  0  0  0  0  0  0  0  0  0  0  0
    4.4063   -1.3571    0.0000 H   0  0  0  0  0  0  0  0  0  0  0  0
    5.1344   -1.0329    0.0000 H   0  0  0  0  0  0  0  0  0  0  0  0
    8.6082    1.3998    0.0000 H   0  0  0  0  0  0  0  0  0  0  0  0
    8.9373   -1.0302    0.0000 H   0  0  0  0  0  0  0  0  0  0  0  0
   10.3403   -1.8402    0.0000 H   0  0  0  0  0  0  0  0  0  0  0  0
    4.9128    0.6143    0.0000 H   0  0  0  0  0  0  0  0  0  0  0  0
   12.0931    1.4344    0.0000 H   0  0  0  0  0  0  0  0  0  0  0  0
    3.3348    0.7758    0.0000 H   0  0  0  0  0  0  0  0  0  0  0  0
   13.5420    0.6126    0.0000 H   0  0  0  0  0  0  0  0  0  0  0  0
   13.5420   -1.0531    0.0000 H   0  0  0  0  0  0  0  0  0  0  0  0
    1.6438    0.4164    0.0000 H   0  0  0  0  0  0  0  0  0  0  0  0
    1.4631   -1.3030    0.0000 H   0  0  0  0  0  0  0  0  0  0  0  0
  1 14  1  0  0  0  0
  1 17  1  0  0  0  0
  2 16  1  0  0  0  0
  2 24  1  0  0  0  0
  3 19  2  0  0  0  0
  4 11  1  0  0  0  0
  4 17  1  0  0  0  0
  4 31  1  0  0  0  0
  5 17  2  0  0  0  0
  5 19  1  0  0  0  0
  6 10  1  0  0  0  0
  6 22  2  0  0  0  0
  7  9  2  0  0  0  0
  7 12  1  0  0  0  0
  7 13  1  0  0  0  0
  8  9  1  0  0  0  0
  8 10  2  0  0  0  0
  8 18  1  0  0  0  0
  9 25  1  0  0  0  0
 10 15  1  0  0  0  0
 11 16  1  0  0  0  0
 11 26  1  0  0  0  0
 11 27  1  0  0  0  0
 12 14  2  0  0  0  0
 12 28  1  0  0  0  0
 13 15  2  0  0  0  0
 13 29  1  0  0  0  0
 14 19  1  0  0  0  0
 15 30  1  0  0  0  0
 16 20  2  0  0  0  0
 18 21  2  0  0  0  0
 18 32  1  0  0  0  0
 20 23  1  0  0  0  0
 20 33  1  0  0  0  0
 21 22  1  0  0  0  0
 21 34  1  0  0  0  0
 22 35  1  0  0  0  0
 23 24  2  0  0  0  0
 23 36  1  0  0  0  0
 24 37  1  0  0  0  0
M  END
> <PUBCHEM_COMPOUND_CID>
44450571

> <PUBCHEM_COMPOUND_CANONICALIZED>
1

> <PUBCHEM_CACTVS_COMPLEXITY>
548

> <PUBCHEM_CACTVS_HBOND_ACCEPTOR>
4

> <PUBCHEM_CACTVS_HBOND_DONOR>
1

> <PUBCHEM_CACTVS_ROTATABLE_BOND>
4

> <PUBCHEM_CACTVS_SUBSKEYS>
AAADccB7IABgAAAAAAAAAAAAAAAAASIAAAA8QAAAAAAAAACx/AAAHgQQAAAADAjF3gS9wfLIEAisAzV3dACDkKFxCjBJ2Lg4ZNgIIOLgmZGEIAhggADoyYcQgMAOCAACAAACAAAQAAQAAAQAAAAAAAAAAA==

> <PUBCHEM_IUPAC_OPENEYE_NAME>
(5E)-5-(6-quinolylmethylene)-2-(2-thienylmethylamino)thiazol-4-one

> <PUBCHEM_IUPAC_CAS_NAME>
(5E)-5-(6-quinolinylmethylidene)-2-(thiophen-2-ylmethylamino)-4-thiazolone

> <PUBCHEM_IUPAC_NAME_MARKUP>
(5<I>E</I>)-5-(quinolin-6-ylmethylidene)-2-(thiophen-2-ylmethylamino)-1,3-thiazol-4-one

> <PUBCHEM_IUPAC_NAME>
(5E)-5-(quinolin-6-ylmethylidene)-2-(thiophen-2-ylmethylamino)-1,3-thiazol-4-one

> <PUBCHEM_IUPAC_SYSTEMATIC_NAME>
(5E)-5-(quinolin-6-ylmethylidene)-2-(thiophen-2-ylmethylamino)-1,3-thiazol-4-one

> <PUBCHEM_IUPAC_TRADITIONAL_NAME>
(5E)-5-(6-quinolylmethylene)-2-(2-thenylamino)-2-thiazolin-4-one

> <PUBCHEM_IUPAC_INCHI>
InChI=1S/C18H13N3OS2/c22-17-16(24-18(21-17)20-11-14-4-2-8-23-14)10-12-5-6-15-13(9-12)3-1-7-19-15/h1-10H,11H2,(H,20,21,22)/b16-10+

> <PUBCHEM_IUPAC_INCHIKEY>
XOLMRFUGOINFDQ-MHWRWJLKSA-N

> <PUBCHEM_XLOGP3_AA>
3.8

> <PUBCHEM_EXACT_MASS>
351.050004

> <PUBCHEM_MOLECULAR_FORMULA>
C18H13N3OS2

> <PUBCHEM_MOLECULAR_WEIGHT>
351.4

> <PUBCHEM_OPENEYE_CAN_SMILES>
C1=CC2=C(C=CC(=C2)C=C3C(=O)N=C(S3)NCC4=CC=CS4)N=C1

> <PUBCHEM_OPENEYE_ISO_SMILES>
C1=CC2=C(C=CC(=C2)/C=C/3\C(=O)N=C(S3)NCC4=CC=CS4)N=C1

> <PUBCHEM_CACTVS_TPSA>
108

> <PUBCHEM_MONOISOTOPIC_WEIGHT>
351.050004

> <PUBCHEM_TOTAL_CHARGE>
0

> <PUBCHEM_HEAVY_ATOM_COUNT>
24

> <PUBCHEM_ATOM_DEF_STEREO_COUNT>
0

> <PUBCHEM_ATOM_UDEF_STEREO_COUNT>
0

> <PUBCHEM_BOND_DEF_STEREO_COUNT>
1

> <PUBCHEM_BOND_UDEF_STEREO_COUNT>
0

> <PUBCHEM_ISOTOPIC_ATOM_COUNT>
0

> <PUBCHEM_COMPONENT_COUNT>
1

> <PUBCHEM_CACTVS_TAUTO_COUNT>
-1

> <PUBCHEM_COORDINATE_TYPE>
1
5
255

> <PUBCHEM_BONDANNOTATIONS>
10  15  8
13  15  8
16  20  8
18  21  8
2  16  8
2  24  8
20  23  8
21  22  8
23  24  8
6  10  8
6  22  8
7  13  8
7  9  8
8  10  8
8  18  8
8  9  8

$$$$
2733526
  -OEChem-02182015172D

 57 59  0     0  0  0  0  0  0999 V2000
    5.4641   -1.5000    0.0000 O   0  0  0  0  0  0  0  0  0  0  0  0
    3.7320   -3.5000    0.0000 N   0  0  0  0  0  0  0  0  0  0  0  0
    5.4641    2.5000    0.0000 C   0  0  0  0  0  0  0  0  0  0  0  0
    4.5981    3.0000    0.0000 C   0  0  0  0  0  0  0  0  0  0  0  0
    5.4641    1.5000    0.0000 C   0  0  0  0  0  0  0  0  0  0  0  0
    4.5981    4.0000    0.0000 C   0  0  0  0  0  0  0  0  0  0  0  0
    6.3301    3.0000    0.0000 C   0  0  0  0  0  0  0  0  0  0  0  0
    3.7320    2.5000    0.0000 C   0  0  0  0  0  0  0  0  0  0  0  0
    6.3301    1.0000    0.0000 C   0  0  0  0  0  0  0  0  0  0  0  0
    4.5981    1.0000    0.0000 C   0  0  0  0  0  0  0  0  0  0  0  0
    3.7320    4.5000    0.0000 C   0  0  0  0  0  0  0  0  0  0  0  0
    5.4641   -0.5000    0.0000 C   0  0  0  0  0  0  0  0  0  0  0  0
    6.3301   -0.0000    0.0000 C   0  0  0  0  0  0  0  0  0  0  0  0
    4.5981   -0.0000    0.0000 C   0  0  0  0  0  0  0  0  0  0  0  0
    7.1962    2.5000    0.0000 C   0  0  0  0  0  0  0  0  0  0  0  0
    6.3301    4.0000    0.0000 C   0  0  0  0  0  0  0  0  0  0  0  0
    2.8660    3.0000    0.0000 C   0  0  0  0  0  0  0  0  0  0  0  0
    3.7320    1.5000    0.0000 C   0  0  0  0  0  0  0  0  0  0  0  0
    4.5981   -3.0000    0.0000 C   0  0  0  0  0  0  0  0  0  0  0  0
    4.5981   -2.0000    0.0000 C   0  0  0  0  0  0  0  0  0  0  0  0
    8.0622    3.0000    0.0000 C   0  0  0  0  0  0  0  0  0  0  0  0
    7.1962    4.5000    0.0000 C   0  0  0  0  0  0  0  0  0  0  0  0
    2.0000    2.5000    0.0000 C   0  0  0  0  0  0  0  0  0  0  0  0
    2.8660    1.0000    0.0000 C   0  0  0  0  0  0  0  0  0  0  0  0
    8.0622    4.0000    0.0000 C   0  0  0  0  0  0  0  0  0  0  0  0
    2.0000    1.5000    0.0000 C   0  0  0  0  0  0  0  0  0  0  0  0
    3.7320   -4.5000    0.0000 C   0  0  0  0  0  0  0  0  0  0  0  0
    2.8660   -3.0000    0.0000 C   0  0  0  0  0  0  0  0  0  0  0  0
    5.2087    3.8923    0.0000 H   0  0  0  0  0  0  0  0  0  0  0  0
    4.8101    4.5826    0.0000 H   0  0  0  0  0  0  0  0  0  0  0  0
    6.8671    1.3100    0.0000 H   0  0  0  0  0  0  0  0  0  0  0  0
    4.0611    1.3100    0.0000 H   0  0  0  0  0  0  0  0  0  0  0  0
    4.0420    5.0369    0.0000 H   0  0  0  0  0  0  0  0  0  0  0  0
    3.1951    4.8100    0.0000 H   0  0  0  0  0  0  0  0  0  0  0  0
    3.4220    3.9631    0.0000 H   0  0  0  0  0  0  0  0  0  0  0  0
    6.8671   -0.3100    0.0000 H   0  0  0  0  0  0  0  0  0  0  0  0
    4.0611   -0.3100    0.0000 H   0  0  0  0  0  0  0  0  0  0  0  0
    7.1962    1.8800    0.0000 H   0  0  0  0  0  0  0  0  0  0  0  0
    5.7932    4.3100    0.0000 H   0  0  0  0  0  0  0  0  0  0  0  0
    4.8101   -3.5826    0.0000 H   0  0  0  0  0  0  0  0  0  0  0  0
    5.2087   -2.8923    0.0000 H   0  0  0  0  0  0  0  0  0  0  0  0
    2.8660    3.6200    0.0000 H   0  0  0  0  0  0  0  0  0  0  0  0
    4.2690    1.1900    0.0000 H   0  0  0  0  0  0  0  0  0  0  0  0
    4.3860   -1.4174    0.0000 H   0  0  0  0  0  0  0  0  0  0  0  0
    3.9875   -2.1077    0.0000 H   0  0  0  0  0  0  0  0  0  0  0  0
    8.5991    2.6900    0.0000 H   0  0  0  0  0  0  0  0  0  0  0  0
    7.1962    5.1200    0.0000 H   0  0  0  0  0  0  0  0  0  0  0  0
    1.4631    2.8100    0.0000 H   0  0  0  0  0  0  0  0  0  0  0  0
    2.8660    0.3800    0.0000 H   0  0  0  0  0  0  0  0  0  0  0  0
    8.5991    4.3100    0.0000 H   0  0  0  0  0  0  0  0  0  0  0  0
    1.4631    1.1900    0.0000 H   0  0  0  0  0  0  0  0  0  0  0  0
    3.1120   -4.5000    0.0000 H   0  0  0  0  0  0  0  0  0  0  0  0
    3.7320   -5.1200    0.0000 H   0  0  0  0  0  0  0  0  0  0  0  0
    4.3520   -4.5000    0.0000 H   0  0  0  0  0  0  0  0  0  0  0  0
    3.1760   -2.4631    0.0000 H   0  0  0  0  0  0  0  0  0  0  0  0
    2.3291   -2.6900    0.0000 H   0  0  0  0  0  0  0  0  0  0  0  0
    2.5560   -3.5369    0.0000 H   0  0  0  0  0  0  0  0  0  0  0  0
  1 12  1  0  0  0  0
  1 20  1  0  0  0  0
  2 19  1  0  0  0  0
  2 27  1  0  0  0  0
  2 28  1  0  0  0  0
  3  4  2  0  0  0  0
  3  5  1  0  0  0  0
  3  7  1  0  0  0  0
  4  6  1  0  0  0  0
  4  8  1  0  0  0  0
  5  9  2  0  0  0  0
  5 10  1  0  0  0  0
  6 11  1  0  0  0  0
  6 29  1  0  0  0  0
  6 30  1  0  0  0  0
  7 15  2  0  0  0  0
  7 16  1  0  0  0  0
  8 17  2  0  0  0  0
  8 18  1  0  0  0  0
  9 13  1  0  0  0  0
  9 31  1  0  0  0  0
 10 14  2  0  0  0  0
 10 32  1  0  0  0  0
 11 33  1  0  0  0  0
 11 34  1  0  0  0  0
 11 35  1  0  0  0  0
 12 13  2  0  0  0  0
 12 14  1  0  0  0  0
 13 36  1  0  0  0  0
 14 37  1  0  0  0  0
 15 21  1  0  0  0  0
 15 38  1  0  0  0  0
 16 22  2  0  0  0  0
 16 39  1  0  0  0  0
 17 23  1  0  0  0  0
 17 42  1  0  0  0  0
 18 24  2  0  0  0  0
 18 43  1  0  0  0  0
 19 20  1  0  0  0  0
 19 40  1  0  0  0  0
 19 41  1  0  0  0  0
 20 44  1  0  0  0  0
 20 45  1  0  0  0  0
 21 25  2  0  0  0  0
 21 46  1  0  0  0  0
 22 25  1  0  0  0  0
 22 47  1  0  0  0  0
 23 26  2  0  0  0  0
 23 48  1  0  0  0  0
 24 26  1  0  0  0  0
 24 49  1  0  0  0  0
 25 50  1  0  0  0  0
 26 51  1  0  0  0  0
 27 52  1  0  0  0  0
 27 53  1  0  0  0  0
 27 54  1  0  0  0  0
 28 55  1  0  0  0  0
 28 56  1  0  0  0  0
 28 57  1  0  0  0  0
M  END
> <PUBCHEM_COMPOUND_CID>
2733526

> <PUBCHEM_COMPOUND_CANONICALIZED>
1

> <PUBCHEM_CACTVS_COMPLEXITY>
463

> <PUBCHEM_CACTVS_HBOND_ACCEPTOR>
2

> <PUBCHEM_CACTVS_HBOND_DONOR>
0

> <PUBCHEM_CACTVS_ROTATABLE_BOND>
8

> <PUBCHEM_CACTVS_SUBSKEYS>
AAADceB6IAAAAAAAAAAAAAAAAAAAAAAAAAAwYMAAAAAAAAABUAAAHgAAAAAADAThmAYyBoMABACAAiBCAAACCAAgIAAIiAAOCIgOJiKEMRqDOCCkwBEYqAeAwOAOIAAAAAAAAABAAAAAAAAAAAAAAAAAAA==

> <PUBCHEM_IUPAC_OPENEYE_NAME>
2-[4-[(Z)-1,2-diphenylbut-1-enyl]phenoxy]-N,N-dimethyl-ethanamine

> <PUBCHEM_IUPAC_CAS_NAME>
2-[4-[(Z)-1,2-diphenylbut-1-enyl]phenoxy]-N,N-dimethylethanamine

> <PUBCHEM_IUPAC_NAME_MARKUP>
2-[4-[(<I>Z</I>)-1,2-diphenylbut-1-enyl]phenoxy]-<I>N</I>,<I>N</I>-dimethylethanamine

> <PUBCHEM_IUPAC_NAME>
2-[4-[(Z)-1,2-diphenylbut-1-enyl]phenoxy]-N,N-dimethylethanamine

> <PUBCHEM_IUPAC_SYSTEMATIC_NAME>
2-[4-[(Z)-1,2-diphenylbut-1-enyl]phenoxy]-N,N-dimethyl-ethanamine

> <PUBCHEM_IUPAC_TRADITIONAL_NAME>
2-[4-[(Z)-1,2-diphenylbut-1-enyl]phenoxy]ethyl-dimethyl-amine

> <PUBCHEM_IUPAC_INCHI>
InChI=1S/C26H29NO/c1-4-25(21-11-7-5-8-12-21)26(22-13-9-6-10-14-22)23-15-17-24(18-16-23)28-20-19-27(2)3/h5-18H,4,19-20H2,1-3H3/b26-25-

> <PUBCHEM_IUPAC_INCHIKEY>
NKANXQFJJICGDU-QPLCGJKRSA-N

> <PUBCHEM_XLOGP3_AA>
7.1

> <PUBCHEM_EXACT_MASS>
371.224915

> <PUBCHEM_MOLECULAR_FORMULA>
C26H29NO

> <PUBCHEM_MOLECULAR_WEIGHT>
371.5

> <PUBCHEM_OPENEYE_CAN_SMILES>
CCC(=C(C1=CC=CC=C1)C2=CC=C(C=C2)OCCN(C)C)C3=CC=CC=C3

> <PUBCHEM_OPENEYE_ISO_SMILES>
CC/C(=C(\C1=CC=CC=C1)/C2=CC=C(C=C2)OCCN(C)C)/C3=CC=CC=C3

> <PUBCHEM_CACTVS_TPSA>
12.5

> <PUBCHEM_MONOISOTOPIC_WEIGHT>
371.224915

> <PUBCHEM_TOTAL_CHARGE>
0

> <PUBCHEM_HEAVY_ATOM_COUNT>
28

> <PUBCHEM_ATOM_DEF_STEREO_COUNT>
0

> <PUBCHEM_ATOM_UDEF_STEREO_COUNT>
0

> <PUBCHEM_BOND_DEF_STEREO_COUNT>
1

> <PUBCHEM_BOND_UDEF_STEREO_COUNT>
0

> <PUBCHEM_ISOTOPIC_ATOM_COUNT>
0

> <PUBCHEM_COMPONENT_COUNT>
1

> <PUBCHEM_CACTVS_TAUTO_COUNT>
-1

> <PUBCHEM_COORDINATE_TYPE>
1
5
255

> <PUBCHEM_BONDANNOTATIONS>
10  14  8
12  13  8
12  14  8
15  21  8
16  22  8
17  23  8
18  24  8
21  25  8
22  25  8
23  26  8
24  26  8
5  10  8
5  9  8
7  15  8
7  16  8
8  17  8
8  18  8
9  13  8

$$$$
51042438
  -OEChem-02182015172D

 44 46  0     1  0  0  0  0  0999 V2000
    5.7634    3.9045    0.0000 Cl  0  0  0  0  0  0  0  0  0  0  0  0
    2.0000    3.0955    0.0000 Cl  0  0  0  0  0  0  0  0  0  0  0  0
    2.9435   -4.4434    0.0000 F   0  0  0  0  0  0  0  0  0  0  0  0
    4.6756   -5.4434    0.0000 F   0  0  0  0  0  0  0  0  0  0  0  0
    5.4846    2.1444    0.0000 O   0  0  0  0  0  0  0  0  0  0  0  0
    3.8096    0.0566    0.0000 O   0  0  0  0  0  0  0  0  0  0  0  0
    5.5416    0.0566    0.0000 N   0  0  0  0  0  0  0  0  0  0  0  0
    7.2736   -0.9434    0.0000 N   0  0  0  0  0  0  0  0  0  0  0  0
    3.8968    4.8556    0.0000 N   0  0  0  0  0  0  0  0  0  0  0  0
    3.0878    5.4434    0.0000 N   0  0  0  0  0  0  0  0  0  0  0  0
    5.5416   -0.9434    0.0000 C   0  0  1  0  0  0  0  0  0  0  0  0
    4.6756   -1.4434    0.0000 C   0  0  0  0  0  0  0  0  0  0  0  0
    6.4076   -1.4434    0.0000 C   0  0  0  0  0  0  0  0  0  0  0  0
    4.6756   -2.4434    0.0000 C   0  0  0  0  0  0  0  0  0  0  0  0
    4.6756    0.5566    0.0000 C   0  0  0  0  0  0  0  0  0  0  0  0
    4.6756    1.5566    0.0000 C   0  0  0  0  0  0  0  0  0  0  0  0
    3.8096   -2.9434    0.0000 C   0  0  0  0  0  0  0  0  0  0  0  0
    5.5416   -2.9434    0.0000 C   0  0  0  0  0  0  0  0  0  0  0  0
    4.1756    3.0955    0.0000 C   0  0  0  0  0  0  0  0  0  0  0  0
    3.8666    2.1444    0.0000 C   0  0  0  0  0  0  0  0  0  0  0  0
    3.5878    3.9045    0.0000 C   0  0  0  0  0  0  0  0  0  0  0  0
    5.1756    3.0955    0.0000 C   0  0  0  0  0  0  0  0  0  0  0  0
    3.8096   -3.9434    0.0000 C   0  0  0  0  0  0  0  0  0  0  0  0
    5.5416   -3.9434    0.0000 C   0  0  0  0  0  0  0  0  0  0  0  0
    2.5878    3.9045    0.0000 C   0  0  0  0  0  0  0  0  0  0  0  0
    4.6756   -4.4434    0.0000 C   0  0  0  0  0  0  0  0  0  0  0  0
    4.8479    5.1646    0.0000 C   0  0  0  0  0  0  0  0  0  0  0  0
    2.2788    4.8556    0.0000 C   0  0  0  0  0  0  0  0  0  0  0  0
    6.0785   -0.6334    0.0000 H   0  0  0  0  0  0  0  0  0  0  0  0
    4.4635   -0.8607    0.0000 H   0  0  0  0  0  0  0  0  0  0  0  0
    4.0650   -1.5510    0.0000 H   0  0  0  0  0  0  0  0  0  0  0  0
    6.0091   -1.9183    0.0000 H   0  0  0  0  0  0  0  0  0  0  0  0
    6.8062   -1.9183    0.0000 H   0  0  0  0  0  0  0  0  0  0  0  0
    6.0785    0.3666    0.0000 H   0  0  0  0  0  0  0  0  0  0  0  0
    3.2726   -2.6334    0.0000 H   0  0  0  0  0  0  0  0  0  0  0  0
    6.0785   -2.6334    0.0000 H   0  0  0  0  0  0  0  0  0  0  0  0
    3.2769    1.9528    0.0000 H   0  0  0  0  0  0  0  0  0  0  0  0
    7.8106   -1.2534    0.0000 H   0  0  0  0  0  0  0  0  0  0  0  0
    7.2736   -0.3234    0.0000 H   0  0  0  0  0  0  0  0  0  0  0  0
    6.0785   -4.2534    0.0000 H   0  0  0  0  0  0  0  0  0  0  0  0
    5.0395    4.5749    0.0000 H   0  0  0  0  0  0  0  0  0  0  0  0
    5.4375    5.3562    0.0000 H   0  0  0  0  0  0  0  0  0  0  0  0
    4.6563    5.7542    0.0000 H   0  0  0  0  0  0  0  0  0  0  0  0
    1.6891    5.0472    0.0000 H   0  0  0  0  0  0  0  0  0  0  0  0
  1 22  1  0  0  0  0
  2 25  1  0  0  0  0
  3 23  1  0  0  0  0
  4 26  1  0  0  0  0
  5 16  1  0  0  0  0
  5 22  1  0  0  0  0
  6 15  2  0  0  0  0
 11  7  1  6  0  0  0
  7 15  1  0  0  0  0
  7 34  1  0  0  0  0
  8 13  1  0  0  0  0
  8 38  1  0  0  0  0
  8 39  1  0  0  0  0
  9 10  1  0  0  0  0
  9 21  1  0  0  0  0
  9 27  1  0  0  0  0
 10 28  2  0  0  0  0
 11 12  1  0  0  0  0
 11 13  1  0  0  0  0
 11 29  1  0  0  0  0
 12 14  1  0  0  0  0
 12 30  1  0  0  0  0
 12 31  1  0  0  0  0
 13 32  1  0  0  0  0
 13 33  1  0  0  0  0
 14 17  2  0  0  0  0
 14 18  1  0  0  0  0
 15 16  1  0  0  0  0
 16 20  2  0  0  0  0
 17 23  1  0  0  0  0
 17 35  1  0  0  0  0
 18 24  2  0  0  0  0
 18 36  1  0  0  0  0
 19 20  1  0  0  0  0
 19 21  1  0  0  0  0
 19 22  2  0  0  0  0
 20 37  1  0  0  0  0
 21 25  2  0  0  0  0
 23 26  2  0  0  0  0
 24 26  1  0  0  0  0
 24 40  1  0  0  0  0
 25 28  1  0  0  0  0
 27 41  1  0  0  0  0
 27 42  1  0  0  0  0
 27 43  1  0  0  0  0
 28 44  1  0  0  0  0
M  END
> <PUBCHEM_COMPOUND_CID>
51042438

> <PUBCHEM_COMPOUND_CANONICALIZED>
1

> <PUBCHEM_CACTVS_COMPLEXITY>
550

> <PUBCHEM_CACTVS_HBOND_ACCEPTOR>
6

> <PUBCHEM_CACTVS_HBOND_DONOR>
2

> <PUBCHEM_CACTVS_ROTATABLE_BOND>
6

> <PUBCHEM_CACTVS_SUBSKEYS>
AAADceB7sYAGAAAAAAAAAAAAAAAAAWJAAAAwAAAAAAAAAAAB8AAAHwIYAAAADC7Bniw+hJLIBECqA/V/VAKSDAAlpQAY2KHuTtgOZrrF9//XvSjm3hHY6Ye834KeAAAAAAAAAAAAAAAAAAAAAAAAAAAAAA==

> <PUBCHEM_IUPAC_OPENEYE_NAME>
N-[(1S)-1-(aminomethyl)-2-(3,4-difluorophenyl)ethyl]-5-chloro-4-(4-chloro-2-methyl-pyrazol-3-yl)furan-2-carboxamide

> <PUBCHEM_IUPAC_CAS_NAME>
N-[(2S)-1-amino-3-(3,4-difluorophenyl)propan-2-yl]-5-chloro-4-(4-chloro-2-methyl-3-pyrazolyl)-2-furancarboxamide

> <PUBCHEM_IUPAC_NAME_MARKUP>
<I>N</I>-[(2<I>S</I>)-1-amino-3-(3,4-difluorophenyl)propan-2-yl]-5-chloro-4-(4-chloro-2-methylpyrazol-3-yl)furan-2-carboxamide

> <PUBCHEM_IUPAC_NAME>
N-[(2S)-1-amino-3-(3,4-difluorophenyl)propan-2-yl]-5-chloro-4-(4-chloro-2-methylpyrazol-3-yl)furan-2-carboxamide

> <PUBCHEM_IUPAC_SYSTEMATIC_NAME>
N-[(2S)-1-azanyl-3-[3,4-bis(fluoranyl)phenyl]propan-2-yl]-5-chloranyl-4-(4-chloranyl-2-methyl-pyrazol-3-yl)furan-2-carboxamide

> <PUBCHEM_IUPAC_TRADITIONAL_NAME>
N-[(1S)-1-(aminomethyl)-2-(3,4-difluorophenyl)ethyl]-5-chloro-4-(4-chloro-2-methyl-pyrazol-3-yl)-2-furamide

> <PUBCHEM_IUPAC_INCHI>
InChI=1S/C18H16Cl2F2N4O2/c1-26-16(12(19)8-24-26)11-6-15(28-17(11)20)18(27)25-10(7-23)4-9-2-3-13(21)14(22)5-9/h2-3,5-6,8,10H,4,7,23H2,1H3,(H,25,27)/t10-/m0/s1

> <PUBCHEM_IUPAC_INCHIKEY>
AXTAPYRUEKNRBA-JTQLQIEISA-N

> <PUBCHEM_XLOGP3_AA>
3.4

> <PUBCHEM_EXACT_MASS>
428.061838

> <PUBCHEM_MOLECULAR_FORMULA>
C18H16Cl2F2N4O2

> <PUBCHEM_MOLECULAR_WEIGHT>
429.2

> <PUBCHEM_OPENEYE_CAN_SMILES>
CN1C(=C(C=N1)Cl)C2=C(OC(=C2)C(=O)NC(CC3=CC(=C(C=C3)F)F)CN)Cl

> <PUBCHEM_OPENEYE_ISO_SMILES>
CN1C(=C(C=N1)Cl)C2=C(OC(=C2)C(=O)N[C@@H](CC3=CC(=C(C=C3)F)F)CN)Cl

> <PUBCHEM_CACTVS_TPSA>
86.1

> <PUBCHEM_MONOISOTOPIC_WEIGHT>
428.061838

> <PUBCHEM_TOTAL_CHARGE>
0

> <PUBCHEM_HEAVY_ATOM_COUNT>
28

> <PUBCHEM_ATOM_DEF_STEREO_COUNT>
1

> <PUBCHEM_ATOM_UDEF_STEREO_COUNT>
0

> <PUBCHEM_BOND_DEF_STEREO_COUNT>
0

> <PUBCHEM_BOND_UDEF_STEREO_COUNT>
0

> <PUBCHEM_ISOTOPIC_ATOM_COUNT>
0

> <PUBCHEM_COMPONENT_COUNT>
1

> <PUBCHEM_CACTVS_TAUTO_COUNT>
-1

> <PUBCHEM_COORDINATE_TYPE>
1
5
255

> <PUBCHEM_BONDANNOTATIONS>
10  28  8
14  17  8
14  18  8
16  20  8
17  23  8
18  24  8
19  20  8
19  22  8
21  25  8
23  26  8
24  26  8
25  28  8
5  16  8
5  22  8
11  7  6
9  10  8
9  21  8

$$$$
46907787
  -OEChem-02182015172D

 56 59  0     1  0  0  0  0  0999 V2000
    3.2431    3.7358    0.0000 Cl  0  0  0  0  0  0  0  0  0  0  0  0
    3.7230   -2.1325    0.0000 S   0  0  0  0  0  0  0  0  0  0  0  0
    8.8467    0.7507    0.0000 O   0  0  0  0  0  0  0  0  0  0  0  0
    7.1916    1.2612    0.0000 O   0  0  0  0  0  0  0  0  0  0  0  0
    5.4786   -2.0587    0.0000 N   0  0  0  0  0  0  0  0  0  0  0  0
    5.9786    0.1319    0.0000 N   0  0  0  0  0  0  0  0  0  0  0  0
    7.0647   -2.3452    0.0000 N   0  0  0  0  0  0  0  0  0  0  0  0
    6.5929   -3.2201    0.0000 N   0  0  0  0  0  0  0  0  0  0  0  0
    6.6021   -0.6499    0.0000 C   0  0  2  0  0  0  0  0  0  0  0  0
    6.3796   -1.6248    0.0000 C   0  0  0  0  0  0  0  0  0  0  0  0
    4.3551   -0.6499    0.0000 C   0  0  0  0  0  0  0  0  0  0  0  0
    4.5777   -1.6248    0.0000 C   0  0  0  0  0  0  0  0  0  0  0  0
    7.5770   -0.4274    0.0000 C   0  0  0  0  0  0  0  0  0  0  0  0
    4.9786    0.1319    0.0000 C   0  0  0  0  0  0  0  0  0  0  0  0
    3.3648   -0.5634    0.0000 C   0  0  0  0  0  0  0  0  0  0  0  0
    5.6146   -3.0435    0.0000 C   0  0  0  0  0  0  0  0  0  0  0  0
    2.9749   -1.4778    0.0000 C   0  0  0  0  0  0  0  0  0  0  0  0
    9.1415    1.7063    0.0000 C   0  0  0  0  0  0  0  0  0  0  0  0
    4.5447    1.0329    0.0000 C   0  0  0  0  0  0  0  0  0  0  0  0
    7.8718    0.5282    0.0000 C   0  0  0  0  0  0  0  0  0  0  0  0
    2.8504    0.2942    0.0000 C   0  0  0  0  0  0  0  0  0  0  0  0
    4.8930   -3.7358    0.0000 C   0  0  0  0  0  0  0  0  0  0  0  0
    2.0000   -1.7003    0.0000 C   0  0  0  0  0  0  0  0  0  0  0  0
    9.4362    2.6618    0.0000 C   0  0  0  0  0  0  0  0  0  0  0  0
   10.0971    1.4115    0.0000 C   0  0  0  0  0  0  0  0  0  0  0  0
    8.1859    2.0010    0.0000 C   0  0  0  0  0  0  0  0  0  0  0  0
    3.5475    1.1076    0.0000 C   0  0  0  0  0  0  0  0  0  0  0  0
    5.1081    1.8591    0.0000 C   0  0  0  0  0  0  0  0  0  0  0  0
    3.1137    2.0086    0.0000 C   0  0  0  0  0  0  0  0  0  0  0  0
    4.6742    2.7601    0.0000 C   0  0  0  0  0  0  0  0  0  0  0  0
    3.6770    2.8348    0.0000 C   0  0  0  0  0  0  0  0  0  0  0  0
    6.8069   -0.0647    0.0000 H   0  0  0  0  0  0  0  0  0  0  0  0
    7.6080   -1.0466    0.0000 H   0  0  0  0  0  0  0  0  0  0  0  0
    8.1922   -0.5045    0.0000 H   0  0  0  0  0  0  0  0  0  0  0  0
    3.3821    0.6131    0.0000 H   0  0  0  0  0  0  0  0  0  0  0  0
    2.5315    0.8259    0.0000 H   0  0  0  0  0  0  0  0  0  0  0  0
    2.3188   -0.0247    0.0000 H   0  0  0  0  0  0  0  0  0  0  0  0
    4.4638   -3.2884    0.0000 H   0  0  0  0  0  0  0  0  0  0  0  0
    4.4456   -4.1650    0.0000 H   0  0  0  0  0  0  0  0  0  0  0  0
    5.3223   -4.1832    0.0000 H   0  0  0  0  0  0  0  0  0  0  0  0
    1.8620   -1.0959    0.0000 H   0  0  0  0  0  0  0  0  0  0  0  0
    1.3955   -1.8383    0.0000 H   0  0  0  0  0  0  0  0  0  0  0  0
    2.1380   -2.3048    0.0000 H   0  0  0  0  0  0  0  0  0  0  0  0
   10.0287    2.4791    0.0000 H   0  0  0  0  0  0  0  0  0  0  0  0
    9.6190    3.2543    0.0000 H   0  0  0  0  0  0  0  0  0  0  0  0
    8.8438    2.8446    0.0000 H   0  0  0  0  0  0  0  0  0  0  0  0
    9.9143    0.8191    0.0000 H   0  0  0  0  0  0  0  0  0  0  0  0
   10.6895    1.2288    0.0000 H   0  0  0  0  0  0  0  0  0  0  0  0
   10.2798    2.0040    0.0000 H   0  0  0  0  0  0  0  0  0  0  0  0
    8.3687    2.5935    0.0000 H   0  0  0  0  0  0  0  0  0  0  0  0
    7.5935    2.1838    0.0000 H   0  0  0  0  0  0  0  0  0  0  0  0
    8.0032    1.4086    0.0000 H   0  0  0  0  0  0  0  0  0  0  0  0
    3.1983    0.5953    0.0000 H   0  0  0  0  0  0  0  0  0  0  0  0
    5.7263    1.8128    0.0000 H   0  0  0  0  0  0  0  0  0  0  0  0
    2.4954    2.0549    0.0000 H   0  0  0  0  0  0  0  0  0  0  0  0
    5.0234    3.2724    0.0000 H   0  0  0  0  0  0  0  0  0  0  0  0
  1 31  1  0  0  0  0
  2 12  1  0  0  0  0
  2 17  1  0  0  0  0
  3 18  1  0  0  0  0
  3 20  1  0  0  0  0
  4 20  2  0  0  0  0
  5 10  1  0  0  0  0
  5 12  1  0  0  0  0
  5 16  1  0  0  0  0
  6  9  1  0  0  0  0
  6 14  2  0  0  0  0
  7  8  1  0  0  0  0
  7 10  2  0  0  0  0
  8 16  2  0  0  0  0
  9 10  1  0  0  0  0
  9 13  1  1  0  0  0
  9 32  1  0  0  0  0
 11 12  2  0  0  0  0
 11 14  1  0  0  0  0
 11 15  1  0  0  0  0
 13 20  1  0  0  0  0
 13 33  1  0  0  0  0
 13 34  1  0  0  0  0
 14 19  1  0  0  0  0
 15 17  2  0  0  0  0
 15 21  1  0  0  0  0
 16 22  1  0  0  0  0
 17 23  1  0  0  0  0
 18 24  1  0  0  0  0
 18 25  1  0  0  0  0
 18 26  1  0  0  0  0
 19 27  2  0  0  0  0
 19 28  1  0  0  0  0
 21 35  1  0  0  0  0
 21 36  1  0  0  0  0
 21 37  1  0  0  0  0
 22 38  1  0  0  0  0
 22 39  1  0  0  0  0
 22 40  1  0  0  0  0
 23 41  1  0  0  0  0
 23 42  1  0  0  0  0
 23 43  1  0  0  0  0
 24 44  1  0  0  0  0
 24 45  1  0  0  0  0
 24 46  1  0  0  0  0
 25 47  1  0  0  0  0
 25 48  1  0  0  0  0
 25 49  1  0  0  0  0
 26 50  1  0  0  0  0
 26 51  1  0  0  0  0
 26 52  1  0  0  0  0
 27 29  1  0  0  0  0
 27 53  1  0  0  0  0
 28 30  2  0  0  0  0
 28 54  1  0  0  0  0
 29 31  2  0  0  0  0
 29 55  1  0  0  0  0
 30 31  1  0  0  0  0
 30 56  1  0  0  0  0
M  END
> <PUBCHEM_COMPOUND_CID>
46907787

> <PUBCHEM_COMPOUND_CANONICALIZED>
1

> <PUBCHEM_CACTVS_COMPLEXITY>
706

> <PUBCHEM_CACTVS_HBOND_ACCEPTOR>
6

> <PUBCHEM_CACTVS_HBOND_DONOR>
0

> <PUBCHEM_CACTVS_ROTATABLE_BOND>
5

> <PUBCHEM_CACTVS_SUBSKEYS>
AAADceB7sABEAAAAAAAAAAAAAAAAAWJAAAAwAAAABAAAAACB8AAAHgYIAAAADG7B2yQzmYcMFAiuAyLybACTgKthDbgdiBEwRpiIaLrhm5GWIAhmiALoyCc0gMAOhAAAAAAAAAAIAAAAAAAAAAAAAAAAAA==

> <PUBCHEM_IUPAC_OPENEYE_NAME>
tert-butyl 2-[(9S)-7-(4-chlorophenyl)-4,5,13-trimethyl-3-thia-1,8,11,12-tetrazatricyclo[8.3.0.02,6]trideca-2(6),4,7,10,12-pentaen-9-yl]acetate

> <PUBCHEM_IUPAC_CAS_NAME>
2-[(9S)-7-(4-chlorophenyl)-4,5,13-trimethyl-3-thia-1,8,11,12-tetrazatricyclo[8.3.0.02,6]trideca-2(6),4,7,10,12-pentaen-9-yl]acetic acid tert-butyl ester

> <PUBCHEM_IUPAC_NAME_MARKUP>
<I>tert</I>-butyl 2-[(9<I>S</I>)-7-(4-chlorophenyl)-4,5,13-trimethyl-3-thia-1,8,11,12-tetrazatricyclo[8.3.0.0<SUP>2,6</SUP>]trideca-2(6),4,7,10,12-pentaen-9-yl]acetate

> <PUBCHEM_IUPAC_NAME>
tert-butyl 2-[(9S)-7-(4-chlorophenyl)-4,5,13-trimethyl-3-thia-1,8,11,12-tetrazatricyclo[8.3.0.02,6]trideca-2(6),4,7,10,12-pentaen-9-yl]acetate

> <PUBCHEM_IUPAC_SYSTEMATIC_NAME>
tert-butyl 2-[(9S)-7-(4-chlorophenyl)-4,5,13-trimethyl-3-thia-1,8,11,12-tetrazatricyclo[8.3.0.02,6]trideca-2(6),4,7,10,12-pentaen-9-yl]ethanoate

> <PUBCHEM_IUPAC_TRADITIONAL_NAME>
2-[(9S)-7-(4-chlorophenyl)-4,5,13-trimethyl-3-thia-1,8,11,12-tetrazatricyclo[8.3.0.02,6]trideca-2(6),4,7,10,12-pentaen-9-yl]acetic acid tert-butyl ester

> <PUBCHEM_IUPAC_INCHI>
InChI=1S/C23H25ClN4O2S/c1-12-13(2)31-22-19(12)20(15-7-9-16(24)10-8-15)25-17(11-18(29)30-23(4,5)6)21-27-26-14(3)28(21)22/h7-10,17H,11H2,1-6H3/t17-/m0/s1

> <PUBCHEM_IUPAC_INCHIKEY>
DNVXATUJJDPFDM-KRWDZBQOSA-N

> <PUBCHEM_XLOGP3_AA>
4.9

> <PUBCHEM_EXACT_MASS>
456.138675

> <PUBCHEM_MOLECULAR_FORMULA>
C23H25ClN4O2S

> <PUBCHEM_MOLECULAR_WEIGHT>
457

> <PUBCHEM_OPENEYE_CAN_SMILES>
CC1=C(SC2=C1C(=NC(C3=NN=C(N32)C)CC(=O)OC(C)(C)C)C4=CC=C(C=C4)Cl)C

> <PUBCHEM_OPENEYE_ISO_SMILES>
CC1=C(SC2=C1C(=N[C@H](C3=NN=C(N32)C)CC(=O)OC(C)(C)C)C4=CC=C(C=C4)Cl)C

> <PUBCHEM_CACTVS_TPSA>
97.6

> <PUBCHEM_MONOISOTOPIC_WEIGHT>
456.138675

> <PUBCHEM_TOTAL_CHARGE>
0

> <PUBCHEM_HEAVY_ATOM_COUNT>
31

> <PUBCHEM_ATOM_DEF_STEREO_COUNT>
1

> <PUBCHEM_ATOM_UDEF_STEREO_COUNT>
0

> <PUBCHEM_BOND_DEF_STEREO_COUNT>
0

> <PUBCHEM_BOND_UDEF_STEREO_COUNT>
0

> <PUBCHEM_ISOTOPIC_ATOM_COUNT>
0

> <PUBCHEM_COMPONENT_COUNT>
1

> <PUBCHEM_CACTVS_TAUTO_COUNT>
-1

> <PUBCHEM_COORDINATE_TYPE>
1
5
255

> <PUBCHEM_BONDANNOTATIONS>
11  12  8
11  15  8
15  17  8
19  27  8
19  28  8
2  12  8
2  17  8
27  29  8
28  30  8
29  31  8
30  31  8
5  10  8
5  16  8
7  10  8
7  8  8
8  16  8
9  13  5

$$$$
5311497
  -OEChem-02182015172D

111119  0     1  0  0  0  0  0999 V2000
    6.7316   -4.8271    0.0000 O   0  0  0  0  0  0  0  0  0  0  0  0
    7.9991   -2.8724    0.0000 O   0  0  0  0  0  0  0  0  0  0  0  0
    8.7422   -3.5415    0.0000 O   0  0  0  0  0  0  0  0  0  0  0  0
    8.5344   -4.5196    0.0000 O   0  0  0  0  0  0  0  0  0  0  0  0
    8.1015    1.6179    0.0000 O   0  0  0  0  0  0  0  0  0  0  0  0
    8.0188   -5.9860    0.0000 O   0  0  0  0  0  0  0  0  0  0  0  0
    6.2997    0.2905    0.0000 O   0  0  0  0  0  0  0  0  0  0  0  0
    5.0237    0.4472    0.0000 O   0  0  0  0  0  0  0  0  0  0  0  0
    4.3052   -2.5984    0.0000 N   0  0  3  0  0  0  0  0  0  0  0  0
    7.3846   -1.5978    0.0000 N   0  0  3  0  0  0  0  0  0  0  0  0
    4.5124    1.8920    0.0000 N   0  0  0  0  0  0  0  0  0  0  0  0
    6.4141    4.6252    0.0000 N   0  0  3  0  0  0  0  0  0  0  0  0
    5.8449   -2.0981    0.0000 C   0  0  1  0  0  0  0  0  0  0  0  0
    5.2195   -2.7927    0.0000 C   0  0  2  0  0  0  0  0  0  0  0  0
    5.5083   -3.6817    0.0000 C   0  0  1  0  0  0  0  0  0  0  0  0
    6.7592   -2.2924    0.0000 C   0  0  2  0  0  0  0  0  0  0  0  0
    7.0480   -3.1814    0.0000 C   0  0  1  0  0  0  0  0  0  0  0  0
    5.4598   -1.0624    0.0000 C   0  0  0  0  0  0  0  0  0  0  0  0
    6.4226   -3.8760    0.0000 C   0  0  2  0  0  0  0  0  0  0  0  0
    6.1815   -0.5145    0.0000 C   0  0  0  0  0  0  0  0  0  0  0  0
    4.0163   -1.7094    0.0000 C   0  0  0  0  0  0  0  0  0  0  0  0
    5.8173   -4.6327    0.0000 C   0  0  0  0  0  0  0  0  0  0  0  0
    7.0958   -0.7088    0.0000 C   0  0  0  0  0  0  0  0  0  0  0  0
    4.8828   -4.3763    0.0000 C   0  0  0  0  0  0  0  0  0  0  0  0
    3.6797   -3.2930    0.0000 C   0  0  0  0  0  0  0  0  0  0  0  0
    3.9686   -4.1820    0.0000 C   0  0  0  0  0  0  0  0  0  0  0  0
    7.7912   -3.8505    0.0000 C   0  0  0  0  0  0  0  0  0  0  0  0
    5.8927    0.3745    0.0000 C   0  0  0  0  0  0  0  0  0  0  0  0
    8.3357   -1.2888    0.0000 C   0  0  0  0  0  0  0  0  0  0  0  0
    7.7212   -0.0142    0.0000 C   0  0  0  0  0  0  0  0  0  0  0  0
    5.1482   -5.3759    0.0000 C   0  0  0  0  0  0  0  0  0  0  0  0
    6.5181    1.0691    0.0000 C   0  0  0  0  0  0  0  0  0  0  0  0
    7.4324    0.8748    0.0000 C   0  0  0  0  0  0  0  0  0  0  0  0
    6.2091    2.0202    0.0000 C   0  0  1  0  0  0  0  0  0  0  0  0
    7.0406   -5.7781    0.0000 C   0  0  0  0  0  0  0  0  0  0  0  0
    7.1602    2.3292    0.0000 C   0  0  0  0  0  0  0  0  0  0  0  0
    5.3181    2.4742    0.0000 C   0  0  0  0  0  0  0  0  0  0  0  0
    5.7551    1.1292    0.0000 C   0  0  0  0  0  0  0  0  0  0  0  0
    7.6142    3.2202    0.0000 C   0  0  1  0  0  0  0  0  0  0  0  0
    6.3715   -6.5213    0.0000 C   0  0  0  0  0  0  0  0  0  0  0  0
    9.4854   -4.2106    0.0000 C   0  0  0  0  0  0  0  0  0  0  0  0
    5.0091    3.4252    0.0000 C   0  0  0  0  0  0  0  0  0  0  0  0
    7.3051    4.1713    0.0000 C   0  0  0  0  0  0  0  0  0  0  0  0
    5.4631    4.3162    0.0000 C   0  0  0  0  0  0  0  0  0  0  0  0
    9.0797    1.4100    0.0000 C   0  0  0  0  0  0  0  0  0  0  0  0
    8.3434    3.9068    0.0000 C   0  0  0  0  0  0  0  0  0  0  0  0
    4.0150    3.4226    0.0000 C   0  0  0  0  0  0  0  0  0  0  0  0
    3.7086    2.4770    0.0000 C   0  0  0  0  0  0  0  0  0  0  0  0
    7.2064    5.2381    0.0000 C   0  0  0  0  0  0  0  0  0  0  0  0
    8.1450    4.8886    0.0000 C   0  0  0  0  0  0  0  0  0  0  0  0
    3.3334    4.2021    0.0000 C   0  0  0  0  0  0  0  0  0  0  0  0
    2.6994    2.2452    0.0000 C   0  0  0  0  0  0  0  0  0  0  0  0
    8.9054    5.5380    0.0000 C   0  0  0  0  0  0  0  0  0  0  0  0
    7.4482    0.3507    0.0000 C   0  0  0  0  0  0  0  0  0  0  0  0
    2.3191    3.9938    0.0000 C   0  0  0  0  0  0  0  0  0  0  0  0
    2.0000    3.0087    0.0000 C   0  0  0  0  0  0  0  0  0  0  0  0
    8.7232    6.5213    0.0000 C   0  0  0  0  0  0  0  0  0  0  0  0
    4.9568   -1.9843    0.0000 H   0  0  0  0  0  0  0  0  0  0  0  0
    7.5906   -2.4691    0.0000 H   0  0  0  0  0  0  0  0  0  0  0  0
    6.0361   -0.8338    0.0000 H   0  0  0  0  0  0  0  0  0  0  0  0
    5.2186   -0.4913    0.0000 H   0  0  0  0  0  0  0  0  0  0  0  0
    7.0290   -4.0049    0.0000 H   0  0  0  0  0  0  0  0  0  0  0  0
    3.7831   -1.1349    0.0000 H   0  0  0  0  0  0  0  0  0  0  0  0
    3.4339   -1.9219    0.0000 H   0  0  0  0  0  0  0  0  0  0  0  0
    6.1990   -5.1213    0.0000 H   0  0  0  0  0  0  0  0  0  0  0  0
    6.3648   -4.3416    0.0000 H   0  0  0  0  0  0  0  0  0  0  0  0
    5.0744   -4.9660    0.0000 H   0  0  0  0  0  0  0  0  0  0  0  0
    3.2980   -2.8044    0.0000 H   0  0  0  0  0  0  0  0  0  0  0  0
    3.1323   -3.5841    0.0000 H   0  0  0  0  0  0  0  0  0  0  0  0
    3.5537   -4.6427    0.0000 H   0  0  0  0  0  0  0  0  0  0  0  0
    5.2862    0.5034    0.0000 H   0  0  0  0  0  0  0  0  0  0  0  0
    8.4140   -2.4116    0.0000 H   0  0  0  0  0  0  0  0  0  0  0  0
    8.5273   -1.8784    0.0000 H   0  0  0  0  0  0  0  0  0  0  0  0
    8.9254   -1.0972    0.0000 H   0  0  0  0  0  0  0  0  0  0  0  0
    8.1441   -0.6991    0.0000 H   0  0  0  0  0  0  0  0  0  0  0  0
    8.3277   -0.1431    0.0000 H   0  0  0  0  0  0  0  0  0  0  0  0
    4.6874   -4.9610    0.0000 H   0  0  0  0  0  0  0  0  0  0  0  0
    4.7333   -5.8366    0.0000 H   0  0  0  0  0  0  0  0  0  0  0  0
    5.6089   -5.7907    0.0000 H   0  0  0  0  0  0  0  0  0  0  0  0
    7.1926    1.7100    0.0000 H   0  0  0  0  0  0  0  0  0  0  0  0
    7.7666    2.2003    0.0000 H   0  0  0  0  0  0  0  0  0  0  0  0
    8.2942    2.7103    0.0000 H   0  0  0  0  0  0  0  0  0  0  0  0
    5.9108   -6.1064    0.0000 H   0  0  0  0  0  0  0  0  0  0  0  0
    5.9566   -6.9820    0.0000 H   0  0  0  0  0  0  0  0  0  0  0  0
    6.8322   -6.9361    0.0000 H   0  0  0  0  0  0  0  0  0  0  0  0
    9.0705   -4.6714    0.0000 H   0  0  0  0  0  0  0  0  0  0  0  0
    9.9461   -4.6255    0.0000 H   0  0  0  0  0  0  0  0  0  0  0  0
    9.9002   -3.7499    0.0000 H   0  0  0  0  0  0  0  0  0  0  0  0
    7.9243    4.2037    0.0000 H   0  0  0  0  0  0  0  0  0  0  0  0
    7.4340    4.7777    0.0000 H   0  0  0  0  0  0  0  0  0  0  0  0
    4.1131    1.4176    0.0000 H   0  0  0  0  0  0  0  0  0  0  0  0
    5.4306    4.9354    0.0000 H   0  0  0  0  0  0  0  0  0  0  0  0
    4.8566    4.4451    0.0000 H   0  0  0  0  0  0  0  0  0  0  0  0
    8.9508    0.8036    0.0000 H   0  0  0  0  0  0  0  0  0  0  0  0
    9.6861    1.2811    0.0000 H   0  0  0  0  0  0  0  0  0  0  0  0
    9.2086    2.0165    0.0000 H   0  0  0  0  0  0  0  0  0  0  0  0
    8.9342    3.7188    0.0000 H   0  0  0  0  0  0  0  0  0  0  0  0
    7.5261    5.7693    0.0000 H   0  0  0  0  0  0  0  0  0  0  0  0
    6.7431    5.6502    0.0000 H   0  0  0  0  0  0  0  0  0  0  0  0
    3.5313    4.7897    0.0000 H   0  0  0  0  0  0  0  0  0  0  0  0
    2.5152    1.6532    0.0000 H   0  0  0  0  0  0  0  0  0  0  0  0
    9.2201    5.0038    0.0000 H   0  0  0  0  0  0  0  0  0  0  0  0
    9.4861    5.7551    0.0000 H   0  0  0  0  0  0  0  0  0  0  0  0
    7.4806   -0.2685    0.0000 H   0  0  0  0  0  0  0  0  0  0  0  0
    8.0673    0.3831    0.0000 H   0  0  0  0  0  0  0  0  0  0  0  0
    7.4157    0.9698    0.0000 H   0  0  0  0  0  0  0  0  0  0  0  0
    1.9056    4.4558    0.0000 H   0  0  0  0  0  0  0  0  0  0  0  0
    1.3942    2.8770    0.0000 H   0  0  0  0  0  0  0  0  0  0  0  0
    9.3328    6.6342    0.0000 H   0  0  0  0  0  0  0  0  0  0  0  0
    8.6102    7.1309    0.0000 H   0  0  0  0  0  0  0  0  0  0  0  0
    8.1135    6.4083    0.0000 H   0  0  0  0  0  0  0  0  0  0  0  0
 19  1  1  6  0  0  0
  1 35  1  0  0  0  0
 17  2  1  6  0  0  0
  2 72  1  0  0  0  0
  3 27  1  0  0  0  0
  3 41  1  0  0  0  0
  4 27  2  0  0  0  0
  5 33  1  0  0  0  0
  5 45  1  0  0  0  0
  6 35  2  0  0  0  0
  7 38  1  0  0  0  0
  7 54  1  0  0  0  0
  8 38  2  0  0  0  0
  9 14  1  0  0  0  0
  9 21  1  0  0  0  0
  9 25  1  0  0  0  0
 10 16  1  0  0  0  0
 10 23  1  0  0  0  0
 10 29  1  0  0  0  0
 11 37  1  0  0  0  0
 11 48  1  0  0  0  0
 11 91  1  0  0  0  0
 12 43  1  0  0  0  0
 12 44  1  0  0  0  0
 12 49  1  0  0  0  0
 13 14  1  0  0  0  0
 13 16  1  0  0  0  0
 13 18  1  6  0  0  0
 13 20  1  0  0  0  0
 14 15  1  0  0  0  0
 14 58  1  1  0  0  0
 15 19  1  0  0  0  0
 15 22  1  1  0  0  0
 15 24  1  0  0  0  0
 16 17  1  0  0  0  0
 16 59  1  6  0  0  0
 17 19  1  0  0  0  0
 17 27  1  0  0  0  0
 18 21  1  0  0  0  0
 18 60  1  0  0  0  0
 18 61  1  0  0  0  0
 19 62  1  0  0  0  0
 20 23  1  0  0  0  0
 20 28  2  0  0  0  0
 21 63  1  0  0  0  0
 21 64  1  0  0  0  0
 22 31  1  0  0  0  0
 22 65  1  0  0  0  0
 22 66  1  0  0  0  0
 23 30  2  0  0  0  0
 24 26  2  0  0  0  0
 24 67  1  0  0  0  0
 25 26  1  0  0  0  0
 25 68  1  0  0  0  0
 25 69  1  0  0  0  0
 26 70  1  0  0  0  0
 28 32  1  0  0  0  0
 28 71  1  0  0  0  0
 29 73  1  0  0  0  0
 29 74  1  0  0  0  0
 29 75  1  0  0  0  0
 30 33  1  0  0  0  0
 30 76  1  0  0  0  0
 31 77  1  0  0  0  0
 31 78  1  0  0  0  0
 31 79  1  0  0  0  0
 32 33  2  0  0  0  0
 32 34  1  0  0  0  0
 34 36  1  0  0  0  0
 34 37  1  0  0  0  0
 34 38  1  1  0  0  0
 35 40  1  0  0  0  0
 36 39  1  0  0  0  0
 36 80  1  0  0  0  0
 36 81  1  0  0  0  0
 37 42  2  0  0  0  0
 39 43  1  0  0  0  0
 39 46  1  0  0  0  0
 39 82  1  6  0  0  0
 40 83  1  0  0  0  0
 40 84  1  0  0  0  0
 40 85  1  0  0  0  0
 41 86  1  0  0  0  0
 41 87  1  0  0  0  0
 41 88  1  0  0  0  0
 42 44  1  0  0  0  0
 42 47  1  0  0  0  0
 43 89  1  0  0  0  0
 43 90  1  0  0  0  0
 44 92  1  0  0  0  0
 44 93  1  0  0  0  0
 45 94  1  0  0  0  0
 45 95  1  0  0  0  0
 45 96  1  0  0  0  0
 46 50  2  0  0  0  0
 46 97  1  0  0  0  0
 47 48  1  0  0  0  0
 47 51  2  0  0  0  0
 48 52  2  0  0  0  0
 49 50  1  0  0  0  0
 49 98  1  0  0  0  0
 49 99  1  0  0  0  0
 50 53  1  0  0  0  0
 51 55  1  0  0  0  0
 51100  1  0  0  0  0
 52 56  1  0  0  0  0
 52101  1  0  0  0  0
 53 57  1  0  0  0  0
 53102  1  0  0  0  0
 53103  1  0  0  0  0
 54104  1  0  0  0  0
 54105  1  0  0  0  0
 54106  1  0  0  0  0
 55 56  2  0  0  0  0
 55107  1  0  0  0  0
 56108  1  0  0  0  0
 57109  1  0  0  0  0
 57110  1  0  0  0  0
 57111  1  0  0  0  0
M  END
> <PUBCHEM_COMPOUND_CID>
5311497

> <PUBCHEM_COMPOUND_CANONICALIZED>
1

> <PUBCHEM_CACTVS_COMPLEXITY>
1690

> <PUBCHEM_CACTVS_HBOND_ACCEPTOR>
11

> <PUBCHEM_CACTVS_HBOND_DONOR>
2

> <PUBCHEM_CACTVS_ROTATABLE_BOND>
10

> <PUBCHEM_CACTVS_SUBSKEYS>
AAADcfB/vAAAAAAAAAAAAAAAAAAAAWLFgAAwYMECAAAWAFiB9AAAHgAQCAAAD3zhngYyzvPJlgCoAyTyTAKCiCAhIiAImSF+bJgPJv7E9ZuGcChn8Bnb6Af62fOfqAACAgAKAABQgAYECBSgAAAAAAAAAA==

> <PUBCHEM_IUPAC_OPENEYE_NAME>
methyl (1R,9R,10S,11R,12R,19R)-11-acetoxy-12-ethyl-4-[(12S,14R)-16-ethyl-12-methoxycarbonyl-1,10-diazatetracyclo[12.3.1.03,11.04,9]octadeca-3(11),4,6,8,15-pentaen-12-yl]-10-hydroxy-5-methoxy-8-methyl-8,16-diazapentacyclo[10.6.1.01,9.02,7.016,19]nonadeca-2,4,6,13-tetraene-10-carboxylate

> <PUBCHEM_IUPAC_CAS_NAME>
(1R,9R,10S,11R,12R,19R)-11-acetyloxy-12-ethyl-4-[(12S,14R)-16-ethyl-12-methoxycarbonyl-1,10-diazatetracyclo[12.3.1.03,11.04,9]octadeca-3(11),4,6,8,15-pentaen-12-yl]-10-hydroxy-5-methoxy-8-methyl-8,16-diazapentacyclo[10.6.1.01,9.02,7.016,19]nonadeca-2,4,6,13-tetraene-10-carboxylic acid methyl ester

> <PUBCHEM_IUPAC_NAME_MARKUP>
methyl (1<I>R</I>,9<I>R</I>,10<I>S</I>,11<I>R</I>,12<I>R</I>,19<I>R</I>)-11-acetyloxy-12-ethyl-4-[(12<I>S</I>,14<I>R</I>)-16-ethyl-12-methoxycarbonyl-1,10-diazatetracyclo[12.3.1.0<SUP>3,11</SUP>.0<SUP>4,9</SUP>]octadeca-3(11),4,6,8,15-pentaen-12-yl]-10-hydroxy-5-methoxy-8-methyl-8,16-diazapentacyclo[10.6.1.0<SUP>1,9</SUP>.0<SUP>2,7</SUP>.0<SUP>16,19</SUP>]nonadeca-2,4,6,13-tetraene-10-carboxylate

> <PUBCHEM_IUPAC_NAME>
methyl (1R,9R,10S,11R,12R,19R)-11-acetyloxy-12-ethyl-4-[(12S,14R)-16-ethyl-12-methoxycarbonyl-1,10-diazatetracyclo[12.3.1.03,11.04,9]octadeca-3(11),4,6,8,15-pentaen-12-yl]-10-hydroxy-5-methoxy-8-methyl-8,16-diazapentacyclo[10.6.1.01,9.02,7.016,19]nonadeca-2,4,6,13-tetraene-10-carboxylate

> <PUBCHEM_IUPAC_SYSTEMATIC_NAME>
methyl (1R,9R,10S,11R,12R,19R)-11-acetyloxy-12-ethyl-4-[(12S,14R)-16-ethyl-12-methoxycarbonyl-1,10-diazatetracyclo[12.3.1.03,11.04,9]octadeca-3(11),4,6,8,15-pentaen-12-yl]-5-methoxy-8-methyl-10-oxidanyl-8,16-diazapentacyclo[10.6.1.01,9.02,7.016,19]nonadeca-2,4,6,13-tetraene-10-carboxylate

> <PUBCHEM_IUPAC_TRADITIONAL_NAME>
(1R,9R,10S,11R,12R,19R)-11-acetoxy-4-[(12S,14R)-12-carbomethoxy-16-ethyl-1,10-diazatetracyclo[12.3.1.03,11.04,9]octadeca-3(11),4,6,8,15-pentaen-12-yl]-12-ethyl-10-hydroxy-5-methoxy-8-methyl-8,16-diazapentacyclo[10.6.1.01,9.02,7.016,19]nonadeca-2,4,6,13-tetraene-10-carboxylic acid methyl ester

> <PUBCHEM_IUPAC_INCHI>
InChI=1S/C45H54N4O8/c1-8-27-19-28-22-44(40(51)55-6,36-30(25-48(23-27)24-28)29-13-10-11-14-33(29)46-36)32-20-31-34(21-35(32)54-5)47(4)38-43(31)16-18-49-17-12-15-42(9-2,37(43)49)39(57-26(3)50)45(38,53)41(52)56-7/h10-15,19-21,28,37-39,46,53H,8-9,16-18,22-25H2,1-7H3/t28-,37-,38+,39+,42+,43+,44-,45-/m0/s1

> <PUBCHEM_IUPAC_INCHIKEY>
GBABOYUKABKIAF-IELIFDKJSA-N

> <PUBCHEM_XLOGP3>
3.6

> <PUBCHEM_EXACT_MASS>
778.394165

> <PUBCHEM_MOLECULAR_FORMULA>
C45H54N4O8

> <PUBCHEM_MOLECULAR_WEIGHT>
778.9

> <PUBCHEM_OPENEYE_CAN_SMILES>
CCC1=CC2CC(C3=C(CN(C2)C1)C4=CC=CC=C4N3)(C5=C(C=C6C(=C5)C78CCN9C7C(C=CC9)(C(C(C8N6C)(C(=O)OC)O)OC(=O)C)CC)OC)C(=O)OC

> <PUBCHEM_OPENEYE_ISO_SMILES>
CCC1=C[C@H]2C[C@@](C3=C(CN(C2)C1)C4=CC=CC=C4N3)(C5=C(C=C6C(=C5)[C@]78CCN9[C@H]7[C@@](C=CC9)([C@H]([C@@]([C@@H]8N6C)(C(=O)OC)O)OC(=O)C)CC)OC)C(=O)OC

> <PUBCHEM_CACTVS_TPSA>
134

> <PUBCHEM_MONOISOTOPIC_WEIGHT>
778.394165

> <PUBCHEM_TOTAL_CHARGE>
0

> <PUBCHEM_HEAVY_ATOM_COUNT>
57

> <PUBCHEM_ATOM_DEF_STEREO_COUNT>
8

> <PUBCHEM_ATOM_UDEF_STEREO_COUNT>
0

> <PUBCHEM_BOND_DEF_STEREO_COUNT>
0

> <PUBCHEM_BOND_UDEF_STEREO_COUNT>
0

> <PUBCHEM_ISOTOPIC_ATOM_COUNT>
0

> <PUBCHEM_COMPONENT_COUNT>
1

> <PUBCHEM_CACTVS_TAUTO_COUNT>
-1

> <PUBCHEM_COORDINATE_TYPE>
1
5
255

> <PUBCHEM_BONDANNOTATIONS>
19  1  6
11  37  8
11  48  8
13  18  6
14  58  5
15  22  5
16  59  6
17  2  6
20  23  8
20  28  8
23  30  8
28  32  8
30  33  8
32  33  8
34  38  5
37  42  8
39  82  6
42  47  8
47  48  8
47  51  8
48  52  8
51  55  8
52  56  8
55  56  8

$$$$
9826528
  -OEChem-02182015172D

 40 41  0     1  0  0  0  0  0999 V2000
   10.3312    3.9050    0.0000 I   0  0  0  0  0  0  0  0  0  0  0  0
    8.5991    0.9050    0.0000 F   0  0  0  0  0  0  0  0  0  0  0  0
    8.5991   -1.0950    0.0000 F   0  0  0  0  0  0  0  0  0  0  0  0
    6.8671    3.9050    0.0000 F   0  0  0  0  0  0  0  0  0  0  0  0
    4.2690   -0.5950    0.0000 O   0  0  0  0  0  0  0  0  0  0  0  0
    4.2690   -2.5950    0.0000 O   0  0  0  0  0  0  0  0  0  0  0  0
    2.5369   -3.5950    0.0000 O   0  0  0  0  0  0  0  0  0  0  0  0
    5.1350    1.9050    0.0000 O   0  0  0  0  0  0  0  0  0  0  0  0
    6.8671    1.9050    0.0000 N   0  0  0  0  0  0  0  0  0  0  0  0
    4.2690    0.4050    0.0000 N   0  0  0  0  0  0  0  0  0  0  0  0
    6.8671    0.9050    0.0000 C   0  0  0  0  0  0  0  0  0  0  0  0
    6.0010    0.4050    0.0000 C   0  0  0  0  0  0  0  0  0  0  0  0
    3.4030   -2.0950    0.0000 C   0  0  1  0  0  0  0  0  0  0  0  0
    3.4030   -1.0950    0.0000 C   0  0  0  0  0  0  0  0  0  0  0  0
    7.7331    2.4050    0.0000 C   0  0  0  0  0  0  0  0  0  0  0  0
    7.7331    0.4050    0.0000 C   0  0  0  0  0  0  0  0  0  0  0  0
    6.0010   -0.5950    0.0000 C   0  0  0  0  0  0  0  0  0  0  0  0
    2.5369   -2.5950    0.0000 C   0  0  0  0  0  0  0  0  0  0  0  0
    5.1350    0.9050    0.0000 C   0  0  0  0  0  0  0  0  0  0  0  0
    7.7331   -0.5950    0.0000 C   0  0  0  0  0  0  0  0  0  0  0  0
    6.8671   -1.0950    0.0000 C   0  0  0  0  0  0  0  0  0  0  0  0
    7.7331    3.4050    0.0000 C   0  0  0  0  0  0  0  0  0  0  0  0
    8.5991    1.9050    0.0000 C   0  0  0  0  0  0  0  0  0  0  0  0
    8.5991    3.9050    0.0000 C   0  0  0  0  0  0  0  0  0  0  0  0
    9.4651    2.4050    0.0000 C   0  0  0  0  0  0  0  0  0  0  0  0
    9.4651    3.4050    0.0000 C   0  0  0  0  0  0  0  0  0  0  0  0
    3.4030   -2.7150    0.0000 H   0  0  0  0  0  0  0  0  0  0  0  0
    3.1909   -0.5124    0.0000 H   0  0  0  0  0  0  0  0  0  0  0  0
    2.7924   -1.2027    0.0000 H   0  0  0  0  0  0  0  0  0  0  0  0
    6.3301    2.2150    0.0000 H   0  0  0  0  0  0  0  0  0  0  0  0
    2.3249   -2.0124    0.0000 H   0  0  0  0  0  0  0  0  0  0  0  0
    1.9264   -2.7027    0.0000 H   0  0  0  0  0  0  0  0  0  0  0  0
    5.4641   -0.9050    0.0000 H   0  0  0  0  0  0  0  0  0  0  0  0
    6.8671   -1.7150    0.0000 H   0  0  0  0  0  0  0  0  0  0  0  0
    3.7320    0.7150    0.0000 H   0  0  0  0  0  0  0  0  0  0  0  0
    8.5991    1.2850    0.0000 H   0  0  0  0  0  0  0  0  0  0  0  0
    8.5991    4.5250    0.0000 H   0  0  0  0  0  0  0  0  0  0  0  0
   10.0021    2.0950    0.0000 H   0  0  0  0  0  0  0  0  0  0  0  0
    4.2690   -3.2150    0.0000 H   0  0  0  0  0  0  0  0  0  0  0  0
    2.0000   -3.9050    0.0000 H   0  0  0  0  0  0  0  0  0  0  0  0
  1 26  1  0  0  0  0
  2 16  1  0  0  0  0
  3 20  1  0  0  0  0
  4 22  1  0  0  0  0
  5 10  1  0  0  0  0
  5 14  1  0  0  0  0
 13  6  1  6  0  0  0
  6 39  1  0  0  0  0
  7 18  1  0  0  0  0
  7 40  1  0  0  0  0
  8 19  2  0  0  0  0
  9 11  1  0  0  0  0
  9 15  1  0  0  0  0
  9 30  1  0  0  0  0
 10 19  1  0  0  0  0
 10 35  1  0  0  0  0
 11 12  2  0  0  0  0
 11 16  1  0  0  0  0
 12 17  1  0  0  0  0
 12 19  1  0  0  0  0
 13 14  1  0  0  0  0
 13 18  1  0  0  0  0
 13 27  1  0  0  0  0
 14 28  1  0  0  0  0
 14 29  1  0  0  0  0
 15 22  2  0  0  0  0
 15 23  1  0  0  0  0
 16 20  2  0  0  0  0
 17 21  2  0  0  0  0
 17 33  1  0  0  0  0
 18 31  1  0  0  0  0
 18 32  1  0  0  0  0
 20 21  1  0  0  0  0
 21 34  1  0  0  0  0
 22 24  1  0  0  0  0
 23 25  2  0  0  0  0
 23 36  1  0  0  0  0
 24 26  2  0  0  0  0
 24 37  1  0  0  0  0
 25 26  1  0  0  0  0
 25 38  1  0  0  0  0
M  END
> <PUBCHEM_COMPOUND_CID>
9826528

> <PUBCHEM_COMPOUND_CANONICALIZED>
1

> <PUBCHEM_CACTVS_COMPLEXITY>
465

> <PUBCHEM_CACTVS_HBOND_ACCEPTOR>
8

> <PUBCHEM_CACTVS_HBOND_DONOR>
4

> <PUBCHEM_CACTVS_ROTATABLE_BOND>
7

> <PUBCHEM_CACTVS_SUBSKEYS>
AAADccB7OYAAAgAAAAAAAAAAAAAAAAAAAAAwYAAAAAAAAAABQAAAHwA0CAAADByjmAowwILQAgCIAiVSUACCAAAlAgAoiAEAZMgJMHrA1ZGEYYhhkADJyccYiACOAAAAAAACAAAAAAAAAAQAAAAAAAAAAA==

> <PUBCHEM_IUPAC_OPENEYE_NAME>
N-[(2R)-2,3-dihydroxypropoxy]-3,4-difluoro-2-(2-fluoro-4-iodo-anilino)benzamide

> <PUBCHEM_IUPAC_CAS_NAME>
N-[(2R)-2,3-dihydroxypropoxy]-3,4-difluoro-2-(2-fluoro-4-iodoanilino)benzamide

> <PUBCHEM_IUPAC_NAME_MARKUP>
<I>N</I>-[(2<I>R</I>)-2,3-dihydroxypropoxy]-3,4-difluoro-2-(2-fluoro-4-iodoanilino)benzamide

> <PUBCHEM_IUPAC_NAME>
N-[(2R)-2,3-dihydroxypropoxy]-3,4-difluoro-2-(2-fluoro-4-iodoanilino)benzamide

> <PUBCHEM_IUPAC_SYSTEMATIC_NAME>
N-[(2R)-2,3-bis(oxidanyl)propoxy]-3,4-bis(fluoranyl)-2-[(2-fluoranyl-4-iodanyl-phenyl)amino]benzamide

> <PUBCHEM_IUPAC_TRADITIONAL_NAME>
N-[(2R)-2,3-dihydroxypropoxy]-3,4-difluoro-2-(2-fluoro-4-iodo-anilino)benzamide

> <PUBCHEM_IUPAC_INCHI>
InChI=1S/C16H14F3IN2O4/c17-11-3-2-10(16(25)22-26-7-9(24)6-23)15(14(11)19)21-13-4-1-8(20)5-12(13)18/h1-5,9,21,23-24H,6-7H2,(H,22,25)/t9-/m1/s1

> <PUBCHEM_IUPAC_INCHIKEY>
SUDAHWBOROXANE-SECBINFHSA-N

> <PUBCHEM_XLOGP3_AA>
3

> <PUBCHEM_EXACT_MASS>
481.99504

> <PUBCHEM_MOLECULAR_FORMULA>
C16H14F3IN2O4

> <PUBCHEM_MOLECULAR_WEIGHT>
482.19

> <PUBCHEM_OPENEYE_CAN_SMILES>
C1=CC(=C(C=C1I)F)NC2=C(C=CC(=C2F)F)C(=O)NOCC(CO)O

> <PUBCHEM_OPENEYE_ISO_SMILES>
C1=CC(=C(C=C1I)F)NC2=C(C=CC(=C2F)F)C(=O)NOC[C@@H](CO)O

> <PUBCHEM_CACTVS_TPSA>
90.8

> <PUBCHEM_MONOISOTOPIC_WEIGHT>
481.99504

> <PUBCHEM_TOTAL_CHARGE>
0

> <PUBCHEM_HEAVY_ATOM_COUNT>
26

> <PUBCHEM_ATOM_DEF_STEREO_COUNT>
1

> <PUBCHEM_ATOM_UDEF_STEREO_COUNT>
0

> <PUBCHEM_BOND_DEF_STEREO_COUNT>
0

> <PUBCHEM_BOND_UDEF_STEREO_COUNT>
0

> <PUBCHEM_ISOTOPIC_ATOM_COUNT>
0

> <PUBCHEM_COMPONENT_COUNT>
1

> <PUBCHEM_CACTVS_TAUTO_COUNT>
-1

> <PUBCHEM_COORDINATE_TYPE>
1
5
255

> <PUBCHEM_BONDANNOTATIONS>
11  12  8
11  16  8
12  17  8
15  22  8
15  23  8
16  20  8
17  21  8
20  21  8
22  24  8
23  25  8
24  26  8
25  26  8
13  6  6

$$$$
91668541
  -OEChem-02182015172D

 55 58  0     0  0  0  0  0  0999 V2000
   11.4939   -2.2990    0.0000 S   0  0  0  0  0  0  0  0  0  0  0  0
    6.4103   -0.6283    0.0000 S   0  0  0  0  0  0  0  0  0  0  0  0
    7.1962    3.0670    0.0000 F   0  0  0  0  0  0  0  0  0  0  0  0
    5.8301    3.4330    0.0000 F   0  0  0  0  0  0  0  0  0  0  0  0
    6.8301    1.7010    0.0000 F   0  0  0  0  0  0  0  0  0  0  0  0
   12.3600   -2.7990    0.0000 O   0  0  0  0  0  0  0  0  0  0  0  0
   12.3600   -1.7990    0.0000 O   0  0  0  0  0  0  0  0  0  0  0  0
    4.5981   -3.4330    0.0000 O   0  0  0  0  0  0  0  0  0  0  0  0
    8.4939   -2.2990    0.0000 N   0  0  0  0  0  0  0  0  0  0  0  0
    3.7320   -1.9330    0.0000 N   0  0  0  0  0  0  0  0  0  0  0  0
    8.4939   -0.5670    0.0000 N   0  0  0  0  0  0  0  0  0  0  0  0
    9.4939   -2.2990    0.0000 C   0  0  0  0  0  0  0  0  0  0  0  0
    9.9939   -1.4330    0.0000 C   0  0  0  0  0  0  0  0  0  0  0  0
    9.9939   -3.1651    0.0000 C   0  0  0  0  0  0  0  0  0  0  0  0
   10.9939   -1.4330    0.0000 C   0  0  0  0  0  0  0  0  0  0  0  0
   10.9939   -3.1651    0.0000 C   0  0  0  0  0  0  0  0  0  0  0  0
    7.9939   -1.4330    0.0000 C   0  0  0  0  0  0  0  0  0  0  0  0
    6.9939   -1.4330    0.0000 C   0  0  0  0  0  0  0  0  0  0  0  0
    5.4641   -1.9330    0.0000 C   0  0  0  0  0  0  0  0  0  0  0  0
    5.4641   -0.9330    0.0000 C   0  0  0  0  0  0  0  0  0  0  0  0
    6.4103   -2.2378    0.0000 C   0  0  0  0  0  0  0  0  0  0  0  0
    4.5981   -0.4330    0.0000 C   0  0  0  0  0  0  0  0  0  0  0  0
    4.5981   -2.4330    0.0000 C   0  0  0  0  0  0  0  0  0  0  0  0
    3.7320   -0.9330    0.0000 C   0  0  0  0  0  0  0  0  0  0  0  0
    4.5981    0.5670    0.0000 C   0  0  0  0  0  0  0  0  0  0  0  0
    2.8660   -2.4330    0.0000 C   0  0  0  0  0  0  0  0  0  0  0  0
    5.4641    1.0670    0.0000 C   0  0  0  0  0  0  0  0  0  0  0  0
    3.7320    1.0670    0.0000 C   0  0  0  0  0  0  0  0  0  0  0  0
    2.0000   -1.9330    0.0000 C   0  0  0  0  0  0  0  0  0  0  0  0
    5.4641    2.0670    0.0000 C   0  0  0  0  0  0  0  0  0  0  0  0
    3.7320    2.0670    0.0000 C   0  0  0  0  0  0  0  0  0  0  0  0
    4.5981    2.5670    0.0000 C   0  0  0  0  0  0  0  0  0  0  0  0
    6.3301    2.5670    0.0000 C   0  0  0  0  0  0  0  0  0  0  0  0
    9.1839   -1.7621    0.0000 H   0  0  0  0  0  0  0  0  0  0  0  0
   10.1016   -0.8224    0.0000 H   0  0  0  0  0  0  0  0  0  0  0  0
    9.4113   -1.2210    0.0000 H   0  0  0  0  0  0  0  0  0  0  0  0
    9.4113   -3.3771    0.0000 H   0  0  0  0  0  0  0  0  0  0  0  0
   10.1016   -3.7756    0.0000 H   0  0  0  0  0  0  0  0  0  0  0  0
   11.5765   -1.2210    0.0000 H   0  0  0  0  0  0  0  0  0  0  0  0
   10.8863   -0.8224    0.0000 H   0  0  0  0  0  0  0  0  0  0  0  0
   10.8863   -3.7756    0.0000 H   0  0  0  0  0  0  0  0  0  0  0  0
   11.5765   -3.3771    0.0000 H   0  0  0  0  0  0  0  0  0  0  0  0
    6.6029   -2.8271    0.0000 H   0  0  0  0  0  0  0  0  0  0  0  0
    3.1951   -0.6230    0.0000 H   0  0  0  0  0  0  0  0  0  0  0  0
    8.1839   -0.0301    0.0000 H   0  0  0  0  0  0  0  0  0  0  0  0
    9.1139   -0.5670    0.0000 H   0  0  0  0  0  0  0  0  0  0  0  0
    2.4675   -2.9080    0.0000 H   0  0  0  0  0  0  0  0  0  0  0  0
    3.2646   -2.9080    0.0000 H   0  0  0  0  0  0  0  0  0  0  0  0
    6.0010    0.7570    0.0000 H   0  0  0  0  0  0  0  0  0  0  0  0
    3.1951    0.7570    0.0000 H   0  0  0  0  0  0  0  0  0  0  0  0
    2.3100   -1.3961    0.0000 H   0  0  0  0  0  0  0  0  0  0  0  0
    1.4631   -1.6230    0.0000 H   0  0  0  0  0  0  0  0  0  0  0  0
    1.6900   -2.4700    0.0000 H   0  0  0  0  0  0  0  0  0  0  0  0
    3.1951    2.3770    0.0000 H   0  0  0  0  0  0  0  0  0  0  0  0
    4.5981    3.1870    0.0000 H   0  0  0  0  0  0  0  0  0  0  0  0
  1  6  2  0  0  0  0
  1  7  2  0  0  0  0
  1 15  1  0  0  0  0
  1 16  1  0  0  0  0
  2 18  1  0  0  0  0
  2 20  1  0  0  0  0
  3 33  1  0  0  0  0
  4 33  1  0  0  0  0
  5 33  1  0  0  0  0
  8 23  2  0  0  0  0
  9 12  1  0  0  0  0
  9 17  2  0  0  0  0
 10 23  1  0  0  0  0
 10 24  1  0  0  0  0
 10 26  1  0  0  0  0
 11 17  1  0  0  0  0
 11 45  1  0  0  0  0
 11 46  1  0  0  0  0
 12 13  1  0  0  0  0
 12 14  1  0  0  0  0
 12 34  1  0  0  0  0
 13 15  1  0  0  0  0
 13 35  1  0  0  0  0
 13 36  1  0  0  0  0
 14 16  1  0  0  0  0
 14 37  1  0  0  0  0
 14 38  1  0  0  0  0
 15 39  1  0  0  0  0
 15 40  1  0  0  0  0
 16 41  1  0  0  0  0
 16 42  1  0  0  0  0
 17 18  1  0  0  0  0
 18 21  2  0  0  0  0
 19 20  2  0  0  0  0
 19 21  1  0  0  0  0
 19 23  1  0  0  0  0
 20 22  1  0  0  0  0
 21 43  1  0  0  0  0
 22 24  2  0  0  0  0
 22 25  1  0  0  0  0
 24 44  1  0  0  0  0
 25 27  2  0  0  0  0
 25 28  1  0  0  0  0
 26 29  1  0  0  0  0
 26 47  1  0  0  0  0
 26 48  1  0  0  0  0
 27 30  1  0  0  0  0
 27 49  1  0  0  0  0
 28 31  2  0  0  0  0
 28 50  1  0  0  0  0
 29 51  1  0  0  0  0
 29 52  1  0  0  0  0
 29 53  1  0  0  0  0
 30 32  2  0  0  0  0
 30 33  1  0  0  0  0
 31 32  1  0  0  0  0
 31 54  1  0  0  0  0
 32 55  1  0  0  0  0
M  END
> <PUBCHEM_COMPOUND_CID>
91668541

> <PUBCHEM_COMPOUND_CANONICALIZED>
1

> <PUBCHEM_CACTVS_COMPLEXITY>
915

> <PUBCHEM_CACTVS_HBOND_ACCEPTOR>
8

> <PUBCHEM_CACTVS_HBOND_DONOR>
1

> <PUBCHEM_CACTVS_ROTATABLE_BOND>
4

> <PUBCHEM_CACTVS_SUBSKEYS>
AAADceB7MYBgAAAAAAAAAAAAAAAAASAAAAA0QIAAAAAAAEABwAAAHwQQAAAADCjF2BSzAYNAAAqsAiN2dHDDAIEkCBBIiBkoBNgIILKglRGEIQhghgCoiYcYicCOAAACAAAAAAAAAAQAAAAAAAAAAAAAAA==

> <PUBCHEM_IUPAC_OPENEYE_NAME>
N'-(1,1-dioxothian-4-yl)-5-ethyl-4-oxo-7-[3-(trifluoromethyl)phenyl]thieno[3,2-c]pyridine-2-carboxamidine

> <PUBCHEM_IUPAC_CAS_NAME>
N'-(1,1-dioxo-4-thianyl)-5-ethyl-4-oxo-7-[3-(trifluoromethyl)phenyl]-2-thieno[3,2-c]pyridinecarboximidamide

> <PUBCHEM_IUPAC_NAME_MARKUP>
<I>N</I>&apos;-(1,1-dioxothian-4-yl)-5-ethyl-4-oxo-7-[3-(trifluoromethyl)phenyl]thieno[3,2-c]pyridine-2-carboximidamide

> <PUBCHEM_IUPAC_NAME>
N'-(1,1-dioxothian-4-yl)-5-ethyl-4-oxo-7-[3-(trifluoromethyl)phenyl]thieno[3,2-c]pyridine-2-carboximidamide

> <PUBCHEM_IUPAC_SYSTEMATIC_NAME>
N'-[1,1-bis(oxidanylidene)thian-4-yl]-5-ethyl-4-oxidanylidene-7-[3-(trifluoromethyl)phenyl]thieno[3,2-c]pyridine-2-carboximidamide

> <PUBCHEM_IUPAC_TRADITIONAL_NAME>
N'-(1,1-diketothian-4-yl)-5-ethyl-4-keto-7-[3-(trifluoromethyl)phenyl]thieno[3,2-c]pyridine-2-carboxamidine

> <PUBCHEM_IUPAC_INCHI>
InChI=1S/C22H22F3N3O3S2/c1-2-28-12-17(13-4-3-5-14(10-13)22(23,24)25)19-16(21(28)29)11-18(32-19)20(26)27-15-6-8-33(30,31)9-7-15/h3-5,10-12,15H,2,6-9H2,1H3,(H2,26,27)

> <PUBCHEM_IUPAC_INCHIKEY>
WRUWGLUCNBMGPS-UHFFFAOYSA-N

> <PUBCHEM_XLOGP3_AA>
2.9

> <PUBCHEM_EXACT_MASS>
497.105468

> <PUBCHEM_MOLECULAR_FORMULA>
C22H22F3N3O3S2

> <PUBCHEM_MOLECULAR_WEIGHT>
497.6

> <PUBCHEM_OPENEYE_CAN_SMILES>
CCN1C=C(C2=C(C1=O)C=C(S2)C(=NC3CCS(=O)(=O)CC3)N)C4=CC(=CC=C4)C(F)(F)F

> <PUBCHEM_OPENEYE_ISO_SMILES>
CCN1C=C(C2=C(C1=O)C=C(S2)C(=NC3CCS(=O)(=O)CC3)N)C4=CC(=CC=C4)C(F)(F)F

> <PUBCHEM_CACTVS_TPSA>
129

> <PUBCHEM_MONOISOTOPIC_WEIGHT>
497.105468

> <PUBCHEM_TOTAL_CHARGE>
0

> <PUBCHEM_HEAVY_ATOM_COUNT>
33

> <PUBCHEM_ATOM_DEF_STEREO_COUNT>
0

> <PUBCHEM_ATOM_UDEF_STEREO_COUNT>
0

> <PUBCHEM_BOND_DEF_STEREO_COUNT>
0

> <PUBCHEM_BOND_UDEF_STEREO_COUNT>
0

> <PUBCHEM_ISOTOPIC_ATOM_COUNT>
0

> <PUBCHEM_COMPONENT_COUNT>
1

> <PUBCHEM_CACTVS_TAUTO_COUNT>
-1

> <PUBCHEM_COORDINATE_TYPE>
1
5
255

> <PUBCHEM_BONDANNOTATIONS>
10  23  8
10  24  8
18  21  8
19  20  8
19  21  8
19  23  8
2  18  8
2  20  8
20  22  8
22  24  8
25  27  8
25  28  8
27  30  8
28  31  8
30  32  8
31  32  8

$$$$
992586
  -OEChem-02182015172D

 41 43  0     0  0  0  0  0  0999 V2000
    2.5369   -3.4050    0.0000 Br  0  0  0  0  0  0  0  0  0  0  0  0
    6.0010   -1.4050    0.0000 S   0  0  0  0  0  0  0  0  0  0  0  0
    5.1350    2.0950    0.0000 S   0  0  0  0  0  0  0  0  0  0  0  0
    6.8671    3.0950    0.0000 O   0  0  0  0  0  0  0  0  0  0  0  0
    6.5010   -2.2710    0.0000 O   0  0  0  0  0  0  0  0  0  0  0  0
    5.5010   -0.5390    0.0000 O   0  0  0  0  0  0  0  0  0  0  0  0
    2.5369    1.5950    0.0000 O   0  0  0  0  0  0  0  0  0  0  0  0
    3.4030    3.0950    0.0000 O   0  0  0  0  0  0  0  0  0  0  0  0
    6.8671   -0.9050    0.0000 N   0  0  0  0  0  0  0  0  0  0  0  0
    7.7331    0.5950    0.0000 C   0  0  0  0  0  0  0  0  0  0  0  0
    6.8671    0.0950    0.0000 C   0  0  0  0  0  0  0  0  0  0  0  0
    7.7331    1.5950    0.0000 C   0  0  0  0  0  0  0  0  0  0  0  0
    6.0010    0.5950    0.0000 C   0  0  0  0  0  0  0  0  0  0  0  0
    6.8671    2.0950    0.0000 C   0  0  0  0  0  0  0  0  0  0  0  0
    6.0010    1.5950    0.0000 C   0  0  0  0  0  0  0  0  0  0  0  0
    8.6270    0.0603    0.0000 C   0  0  0  0  0  0  0  0  0  0  0  0
    5.1350   -1.9050    0.0000 C   0  0  0  0  0  0  0  0  0  0  0  0
    8.6270    2.1297    0.0000 C   0  0  0  0  0  0  0  0  0  0  0  0
    9.5331    0.5742    0.0000 C   0  0  0  0  0  0  0  0  0  0  0  0
    9.5331    1.6158    0.0000 C   0  0  0  0  0  0  0  0  0  0  0  0
    5.1350   -2.9050    0.0000 C   0  0  0  0  0  0  0  0  0  0  0  0
    4.2690   -1.4050    0.0000 C   0  0  0  0  0  0  0  0  0  0  0  0
    4.2690   -3.4050    0.0000 C   0  0  0  0  0  0  0  0  0  0  0  0
    3.4030   -1.9050    0.0000 C   0  0  0  0  0  0  0  0  0  0  0  0
    4.2690    1.5950    0.0000 C   0  0  0  0  0  0  0  0  0  0  0  0
    3.4030   -2.9050    0.0000 C   0  0  0  0  0  0  0  0  0  0  0  0
    3.4030    2.0950    0.0000 C   0  0  0  0  0  0  0  0  0  0  0  0
    7.4040   -1.2150    0.0000 H   0  0  0  0  0  0  0  0  0  0  0  0
    5.4641    0.2850    0.0000 H   0  0  0  0  0  0  0  0  0  0  0  0
    8.6199   -0.5596    0.0000 H   0  0  0  0  0  0  0  0  0  0  0  0
    8.6199    2.7496    0.0000 H   0  0  0  0  0  0  0  0  0  0  0  0
   10.0688    0.2621    0.0000 H   0  0  0  0  0  0  0  0  0  0  0  0
   10.0688    1.9279    0.0000 H   0  0  0  0  0  0  0  0  0  0  0  0
    5.6720   -3.2150    0.0000 H   0  0  0  0  0  0  0  0  0  0  0  0
    4.2690   -0.7850    0.0000 H   0  0  0  0  0  0  0  0  0  0  0  0
    4.2690   -4.0250    0.0000 H   0  0  0  0  0  0  0  0  0  0  0  0
    2.8660   -1.5950    0.0000 H   0  0  0  0  0  0  0  0  0  0  0  0
    6.3301    3.4050    0.0000 H   0  0  0  0  0  0  0  0  0  0  0  0
    3.8705    1.1200    0.0000 H   0  0  0  0  0  0  0  0  0  0  0  0
    4.6675    1.1200    0.0000 H   0  0  0  0  0  0  0  0  0  0  0  0
    2.0000    1.9050    0.0000 H   0  0  0  0  0  0  0  0  0  0  0  0
  1 26  1  0  0  0  0
  2  5  2  0  0  0  0
  2  6  2  0  0  0  0
  2  9  1  0  0  0  0
  2 17  1  0  0  0  0
  3 15  1  0  0  0  0
  3 25  1  0  0  0  0
  4 14  1  0  0  0  0
  4 38  1  0  0  0  0
  7 27  1  0  0  0  0
  7 41  1  0  0  0  0
  8 27  2  0  0  0  0
  9 11  1  0  0  0  0
  9 28  1  0  0  0  0
 10 11  1  0  0  0  0
 10 12  1  0  0  0  0
 10 16  2  0  0  0  0
 11 13  2  0  0  0  0
 12 14  1  0  0  0  0
 12 18  2  0  0  0  0
 13 15  1  0  0  0  0
 13 29  1  0  0  0  0
 14 15  2  0  0  0  0
 16 19  1  0  0  0  0
 16 30  1  0  0  0  0
 17 21  2  0  0  0  0
 17 22  1  0  0  0  0
 18 20  1  0  0  0  0
 18 31  1  0  0  0  0
 19 20  2  0  0  0  0
 19 32  1  0  0  0  0
 20 33  1  0  0  0  0
 21 23  1  0  0  0  0
 21 34  1  0  0  0  0
 22 24  2  0  0  0  0
 22 35  1  0  0  0  0
 23 26  2  0  0  0  0
 23 36  1  0  0  0  0
 24 26  1  0  0  0  0
 24 37  1  0  0  0  0
 25 27  1  0  0  0  0
 25 39  1  0  0  0  0
 25 40  1  0  0  0  0
M  END
> <PUBCHEM_COMPOUND_CID>
992586

> <PUBCHEM_COMPOUND_CANONICALIZED>
1

> <PUBCHEM_CACTVS_COMPLEXITY>
618

> <PUBCHEM_CACTVS_HBOND_ACCEPTOR>
7

> <PUBCHEM_CACTVS_HBOND_DONOR>
3

> <PUBCHEM_CACTVS_ROTATABLE_BOND>
6

> <PUBCHEM_CACTVS_SUBSKEYS>
AAADccB6OABgEAAAAAAAAAAAAAAAAAAAAAAwYMAAAAAAAADBVAAAHgRQSAABrAyF2ACwz8BAAgqIAiTSSHDCABAgKhQIiBoEbKgIJiKikZOAcARk0BEo2hewwLAOkEEBwCAaIAAgggOAQDRAAAAAAAAAAA==

> <PUBCHEM_IUPAC_OPENEYE_NAME>
2-[[4-[(4-bromophenyl)sulfonylamino]-1-hydroxy-2-naphthyl]sulfanyl]acetic acid

> <PUBCHEM_IUPAC_CAS_NAME>
2-[[4-[(4-bromophenyl)sulfonylamino]-1-hydroxy-2-naphthalenyl]thio]acetic acid

> <PUBCHEM_IUPAC_NAME_MARKUP>
2-[4-[(4-bromophenyl)sulfonylamino]-1-hydroxynaphthalen-2-yl]sulfanylacetic acid

> <PUBCHEM_IUPAC_NAME>
2-[4-[(4-bromophenyl)sulfonylamino]-1-hydroxynaphthalen-2-yl]sulfanylacetic acid

> <PUBCHEM_IUPAC_SYSTEMATIC_NAME>
2-[4-[(4-bromophenyl)sulfonylamino]-1-oxidanyl-naphthalen-2-yl]sulfanylethanoic acid

> <PUBCHEM_IUPAC_TRADITIONAL_NAME>
2-[[4-(brosylamino)-1-hydroxy-2-naphthyl]thio]acetic acid

> <PUBCHEM_IUPAC_INCHI>
InChI=1S/C18H14BrNO5S2/c19-11-5-7-12(8-6-11)27(24,25)20-15-9-16(26-10-17(21)22)18(23)14-4-2-1-3-13(14)15/h1-9,20,23H,10H2,(H,21,22)

> <PUBCHEM_IUPAC_INCHIKEY>
WUGANDSUVKXMEC-UHFFFAOYSA-N

> <PUBCHEM_XLOGP3_AA>
4.1

> <PUBCHEM_EXACT_MASS>
466.94968

> <PUBCHEM_MOLECULAR_FORMULA>
C18H14BrNO5S2

> <PUBCHEM_MOLECULAR_WEIGHT>
468.3

> <PUBCHEM_OPENEYE_CAN_SMILES>
C1=CC=C2C(=C1)C(=CC(=C2O)SCC(=O)O)NS(=O)(=O)C3=CC=C(C=C3)Br

> <PUBCHEM_OPENEYE_ISO_SMILES>
C1=CC=C2C(=C1)C(=CC(=C2O)SCC(=O)O)NS(=O)(=O)C3=CC=C(C=C3)Br

> <PUBCHEM_CACTVS_TPSA>
137

> <PUBCHEM_MONOISOTOPIC_WEIGHT>
466.94968

> <PUBCHEM_TOTAL_CHARGE>
0

> <PUBCHEM_HEAVY_ATOM_COUNT>
27

> <PUBCHEM_ATOM_DEF_STEREO_COUNT>
0

> <PUBCHEM_ATOM_UDEF_STEREO_COUNT>
0

> <PUBCHEM_BOND_DEF_STEREO_COUNT>
0

> <PUBCHEM_BOND_UDEF_STEREO_COUNT>
0

> <PUBCHEM_ISOTOPIC_ATOM_COUNT>
0

> <PUBCHEM_COMPONENT_COUNT>
1

> <PUBCHEM_CACTVS_TAUTO_COUNT>
-1

> <PUBCHEM_COORDINATE_TYPE>
1
5
255

> <PUBCHEM_BONDANNOTATIONS>
10  11  8
10  12  8
10  16  8
11  13  8
12  14  8
12  18  8
13  15  8
14  15  8
16  19  8
17  21  8
17  22  8
18  20  8
19  20  8
21  23  8
22  24  8
23  26  8
24  26  8

$$$$
46236925
  -OEChem-02182015172D

 92 97  0     1  0  0  0  0  0999 V2000
    6.3290   -1.2500    0.0000 O   0  0  0  0  0  0  0  0  0  0  0  0
    8.9270    1.2500    0.0000 O   0  0  0  0  0  0  0  0  0  0  0  0
    2.7988    1.7742    0.0000 O   0  0  0  0  0  0  0  0  0  0  0  0
   12.4572   -1.7742    0.0000 O   0  0  0  0  0  0  0  0  0  0  0  0
    2.7988   -0.2742    0.0000 O   0  0  0  0  0  0  0  0  0  0  0  0
   12.4572    0.2742    0.0000 O   0  0  0  0  0  0  0  0  0  0  0  0
    5.4523    3.2746    0.0000 O   0  0  0  0  0  0  0  0  0  0  0  0
    9.8037   -3.2746    0.0000 O   0  0  0  0  0  0  0  0  0  0  0  0
    3.7204    3.2946    0.0000 N   0  0  0  0  0  0  0  0  0  0  0  0
   11.5356   -3.2946    0.0000 N   0  0  0  0  0  0  0  0  0  0  0  0
    7.1950    0.2500    0.0000 C   0  0  0  0  0  0  0  0  0  0  0  0
    8.0610   -0.2500    0.0000 C   0  0  0  0  0  0  0  0  0  0  0  0
    5.4629    1.2500    0.0000 C   0  0  0  0  0  0  0  0  0  0  0  0
    9.7931   -1.2500    0.0000 C   0  0  0  0  0  0  0  0  0  0  0  0
    7.1950    1.2500    0.0000 C   0  0  0  0  0  0  0  0  0  0  0  0
    8.0610   -1.2500    0.0000 C   0  0  0  0  0  0  0  0  0  0  0  0
    5.4629    0.2500    0.0000 C   0  0  0  0  0  0  0  0  0  0  0  0
    9.7931   -0.2500    0.0000 C   0  0  0  0  0  0  0  0  0  0  0  0
    6.3290   -0.2500    0.0000 C   0  0  0  0  0  0  0  0  0  0  0  0
    8.9270    0.2500    0.0000 C   0  0  0  0  0  0  0  0  0  0  0  0
    6.3290    1.7500    0.0000 C   0  0  0  0  0  0  0  0  0  0  0  0
    8.9270   -1.7500    0.0000 C   0  0  0  0  0  0  0  0  0  0  0  0
    4.5690    1.7847    0.0000 C   0  0  0  0  0  0  0  0  0  0  0  0
   10.6870   -1.7847    0.0000 C   0  0  0  0  0  0  0  0  0  0  0  0
    2.8718    4.8045    0.0000 C   0  0  1  0  0  0  0  0  0  0  0  0
   12.3843   -4.8045    0.0000 C   0  0  1  0  0  0  0  0  0  0  0  0
    4.5690   -0.2847    0.0000 C   0  0  0  0  0  0  0  0  0  0  0  0
   10.6870    0.2847    0.0000 C   0  0  0  0  0  0  0  0  0  0  0  0
    3.7319    4.2945    0.0000 C   0  0  0  0  0  0  0  0  0  0  0  0
   11.5241   -4.2945    0.0000 C   0  0  0  0  0  0  0  0  0  0  0  0
    8.0610    1.7500    0.0000 C   0  0  0  0  0  0  0  0  0  0  0  0
    7.1950   -1.7500    0.0000 C   0  0  0  0  0  0  0  0  0  0  0  0
    3.6629    1.2708    0.0000 C   0  0  0  0  0  0  0  0  0  0  0  0
   11.5931   -1.2708    0.0000 C   0  0  0  0  0  0  0  0  0  0  0  0
    4.5806    2.7846    0.0000 C   0  0  0  0  0  0  0  0  0  0  0  0
   10.6754   -2.7846    0.0000 C   0  0  0  0  0  0  0  0  0  0  0  0
    3.6629    0.2292    0.0000 C   0  0  0  0  0  0  0  0  0  0  0  0
   11.5931   -0.2292    0.0000 C   0  0  0  0  0  0  0  0  0  0  0  0
    2.8833    5.8044    0.0000 C   0  0  0  0  0  0  0  0  0  0  0  0
   12.3727   -5.8044    0.0000 C   0  0  0  0  0  0  0  0  0  0  0  0
    2.0000    4.3145    0.0000 C   0  0  0  0  0  0  0  0  0  0  0  0
   13.2560   -4.3145    0.0000 C   0  0  0  0  0  0  0  0  0  0  0  0
    3.7551    6.2944    0.0000 C   0  0  0  0  0  0  0  0  0  0  0  0
   11.5009   -6.2944    0.0000 C   0  0  0  0  0  0  0  0  0  0  0  0
    2.0231    6.3144    0.0000 C   0  0  0  0  0  0  0  0  0  0  0  0
   13.2329   -6.3144    0.0000 C   0  0  0  0  0  0  0  0  0  0  0  0
    3.7666    7.2943    0.0000 C   0  0  0  0  0  0  0  0  0  0  0  0
   11.4894   -7.2943    0.0000 C   0  0  0  0  0  0  0  0  0  0  0  0
    2.0347    7.3143    0.0000 C   0  0  0  0  0  0  0  0  0  0  0  0
   13.2213   -7.3143    0.0000 C   0  0  0  0  0  0  0  0  0  0  0  0
    2.9064    7.8043    0.0000 C   0  0  0  0  0  0  0  0  0  0  0  0
   12.3496   -7.8043    0.0000 C   0  0  0  0  0  0  0  0  0  0  0  0
    6.3290    2.3700    0.0000 H   0  0  0  0  0  0  0  0  0  0  0  0
    8.9270   -2.3700    0.0000 H   0  0  0  0  0  0  0  0  0  0  0  0
    2.3384    5.1207    0.0000 H   0  0  0  0  0  0  0  0  0  0  0  0
   12.9176   -5.1207    0.0000 H   0  0  0  0  0  0  0  0  0  0  0  0
    4.5762   -0.9046    0.0000 H   0  0  0  0  0  0  0  0  0  0  0  0
   10.6798    0.9046    0.0000 H   0  0  0  0  0  0  0  0  0  0  0  0
    4.3412    4.1798    0.0000 H   0  0  0  0  0  0  0  0  0  0  0  0
    3.9507    4.8746    0.0000 H   0  0  0  0  0  0  0  0  0  0  0  0
   10.9148   -4.1798    0.0000 H   0  0  0  0  0  0  0  0  0  0  0  0
   11.3053   -4.8746    0.0000 H   0  0  0  0  0  0  0  0  0  0  0  0
    8.3710    1.2131    0.0000 H   0  0  0  0  0  0  0  0  0  0  0  0
    8.5980    2.0600    0.0000 H   0  0  0  0  0  0  0  0  0  0  0  0
    7.7510    2.2869    0.0000 H   0  0  0  0  0  0  0  0  0  0  0  0
    6.8850   -1.2131    0.0000 H   0  0  0  0  0  0  0  0  0  0  0  0
    6.6580   -2.0600    0.0000 H   0  0  0  0  0  0  0  0  0  0  0  0
    7.5050   -2.2869    0.0000 H   0  0  0  0  0  0  0  0  0  0  0  0
    3.1799    2.9908    0.0000 H   0  0  0  0  0  0  0  0  0  0  0  0
   12.0761   -2.9908    0.0000 H   0  0  0  0  0  0  0  0  0  0  0  0
    1.6962    4.8550    0.0000 H   0  0  0  0  0  0  0  0  0  0  0  0
    1.4595    4.0108    0.0000 H   0  0  0  0  0  0  0  0  0  0  0  0
    2.3038    3.7740    0.0000 H   0  0  0  0  0  0  0  0  0  0  0  0
   13.5598   -4.8550    0.0000 H   0  0  0  0  0  0  0  0  0  0  0  0
   13.7965   -4.0108    0.0000 H   0  0  0  0  0  0  0  0  0  0  0  0
   12.9522   -3.7740    0.0000 H   0  0  0  0  0  0  0  0  0  0  0  0
    5.7920   -1.5600    0.0000 H   0  0  0  0  0  0  0  0  0  0  0  0
    9.4640    1.5600    0.0000 H   0  0  0  0  0  0  0  0  0  0  0  0
    4.2884    5.9782    0.0000 H   0  0  0  0  0  0  0  0  0  0  0  0
   10.9676   -5.9782    0.0000 H   0  0  0  0  0  0  0  0  0  0  0  0
    1.4826    6.0106    0.0000 H   0  0  0  0  0  0  0  0  0  0  0  0
   13.7734   -6.0106    0.0000 H   0  0  0  0  0  0  0  0  0  0  0  0
    2.2607    1.4662    0.0000 H   0  0  0  0  0  0  0  0  0  0  0  0
   12.9953   -1.4662    0.0000 H   0  0  0  0  0  0  0  0  0  0  0  0
    2.8012   -0.8941    0.0000 H   0  0  0  0  0  0  0  0  0  0  0  0
   12.4548    0.8941    0.0000 H   0  0  0  0  0  0  0  0  0  0  0  0
    4.3071    7.5981    0.0000 H   0  0  0  0  0  0  0  0  0  0  0  0
   10.9489   -7.5981    0.0000 H   0  0  0  0  0  0  0  0  0  0  0  0
    1.5014    7.6305    0.0000 H   0  0  0  0  0  0  0  0  0  0  0  0
   13.7546   -7.6305    0.0000 H   0  0  0  0  0  0  0  0  0  0  0  0
    2.9136    8.4242    0.0000 H   0  0  0  0  0  0  0  0  0  0  0  0
   12.3424   -8.4242    0.0000 H   0  0  0  0  0  0  0  0  0  0  0  0
  1 19  1  0  0  0  0
  1 77  1  0  0  0  0
  2 20  1  0  0  0  0
  2 78  1  0  0  0  0
  3 33  1  0  0  0  0
  3 83  1  0  0  0  0
  4 34  1  0  0  0  0
  4 84  1  0  0  0  0
  5 37  1  0  0  0  0
  5 85  1  0  0  0  0
  6 38  1  0  0  0  0
  6 86  1  0  0  0  0
  7 35  2  0  0  0  0
  8 36  2  0  0  0  0
  9 29  1  0  0  0  0
  9 35  1  0  0  0  0
  9 69  1  0  0  0  0
 10 30  1  0  0  0  0
 10 36  1  0  0  0  0
 10 70  1  0  0  0  0
 11 12  1  0  0  0  0
 11 15  1  0  0  0  0
 11 19  2  0  0  0  0
 12 16  1  0  0  0  0
 12 20  2  0  0  0  0
 13 17  1  0  0  0  0
 13 21  1  0  0  0  0
 13 23  2  0  0  0  0
 14 18  1  0  0  0  0
 14 22  1  0  0  0  0
 14 24  2  0  0  0  0
 15 21  2  0  0  0  0
 15 31  1  0  0  0  0
 16 22  2  0  0  0  0
 16 32  1  0  0  0  0
 17 19  1  0  0  0  0
 17 27  2  0  0  0  0
 18 20  1  0  0  0  0
 18 28  2  0  0  0  0
 21 53  1  0  0  0  0
 22 54  1  0  0  0  0
 23 33  1  0  0  0  0
 23 35  1  0  0  0  0
 24 34  1  0  0  0  0
 24 36  1  0  0  0  0
 25 29  1  0  0  0  0
 25 39  1  0  0  0  0
 25 41  1  6  0  0  0
 25 55  1  0  0  0  0
 26 30  1  0  0  0  0
 26 40  1  0  0  0  0
 26 42  1  6  0  0  0
 26 56  1  0  0  0  0
 27 37  1  0  0  0  0
 27 57  1  0  0  0  0
 28 38  1  0  0  0  0
 28 58  1  0  0  0  0
 29 59  1  0  0  0  0
 29 60  1  0  0  0  0
 30 61  1  0  0  0  0
 30 62  1  0  0  0  0
 31 63  1  0  0  0  0
 31 64  1  0  0  0  0
 31 65  1  0  0  0  0
 32 66  1  0  0  0  0
 32 67  1  0  0  0  0
 32 68  1  0  0  0  0
 33 37  2  0  0  0  0
 34 38  2  0  0  0  0
 39 43  2  0  0  0  0
 39 45  1  0  0  0  0
 40 44  2  0  0  0  0
 40 46  1  0  0  0  0
 41 71  1  0  0  0  0
 41 72  1  0  0  0  0
 41 73  1  0  0  0  0
 42 74  1  0  0  0  0
 42 75  1  0  0  0  0
 42 76  1  0  0  0  0
 43 47  1  0  0  0  0
 43 79  1  0  0  0  0
 44 48  1  0  0  0  0
 44 80  1  0  0  0  0
 45 49  2  0  0  0  0
 45 81  1  0  0  0  0
 46 50  2  0  0  0  0
 46 82  1  0  0  0  0
 47 51  2  0  0  0  0
 47 87  1  0  0  0  0
 48 52  2  0  0  0  0
 48 88  1  0  0  0  0
 49 51  1  0  0  0  0
 49 89  1  0  0  0  0
 50 52  1  0  0  0  0
 50 90  1  0  0  0  0
 51 91  1  0  0  0  0
 52 92  1  0  0  0  0
M  END
> <PUBCHEM_COMPOUND_CID>
46236925

> <PUBCHEM_COMPOUND_CANONICALIZED>
1

> <PUBCHEM_CACTVS_COMPLEXITY>
1100

> <PUBCHEM_CACTVS_HBOND_ACCEPTOR>
8

> <PUBCHEM_CACTVS_HBOND_DONOR>
8

> <PUBCHEM_CACTVS_ROTATABLE_BOND>
9

> <PUBCHEM_CACTVS_SUBSKEYS>
AAADcfB/PAAAAAAAAAAAAAAAAAAAAAAAAAAwYMGDAAAAAADBVAAAHgAQCAAADQTBmAQyBsLAAgCIAiFSEACCAAAkIAAIiIEOjMgJJjaClROEcUlm9hGJmQf6/PbO4AADAAAYQADAAAYAADCAAAAAAAAAAA==

> <PUBCHEM_IUPAC_OPENEYE_NAME>
2,3,5-trihydroxy-7-methyl-N-[(2R)-2-phenylpropyl]-6-[1,6,7-trihydroxy-3-methyl-5-[[(2R)-2-phenylpropyl]carbamoyl]-2-naphthyl]naphthalene-1-carboxamide

> <PUBCHEM_IUPAC_CAS_NAME>
2,3,5-trihydroxy-7-methyl-N-[(2R)-2-phenylpropyl]-6-[1,6,7-trihydroxy-3-methyl-5-[oxo-[[(2R)-2-phenylpropyl]amino]methyl]-2-naphthalenyl]-1-naphthalenecarboxamide

> <PUBCHEM_IUPAC_NAME_MARKUP>
2,3,5-trihydroxy-7-methyl-<I>N</I>-[(2<I>R</I>)-2-phenylpropyl]-6-[1,6,7-trihydroxy-3-methyl-5-[[(2<I>R</I>)-2-phenylpropyl]carbamoyl]naphthalen-2-yl]naphthalene-1-carboxamide

> <PUBCHEM_IUPAC_NAME>
2,3,5-trihydroxy-7-methyl-N-[(2R)-2-phenylpropyl]-6-[1,6,7-trihydroxy-3-methyl-5-[[(2R)-2-phenylpropyl]carbamoyl]naphthalen-2-yl]naphthalene-1-carboxamide

> <PUBCHEM_IUPAC_SYSTEMATIC_NAME>
7-methyl-6-[3-methyl-1,6,7-tris(oxidanyl)-5-[[(2R)-2-phenylpropyl]carbamoyl]naphthalen-2-yl]-2,3,5-tris(oxidanyl)-N-[(2R)-2-phenylpropyl]naphthalene-1-carboxamide

> <PUBCHEM_IUPAC_TRADITIONAL_NAME>
2,3,5-trihydroxy-7-methyl-N-[(2R)-2-phenylpropyl]-6-[1,6,7-trihydroxy-3-methyl-5-[[(2R)-2-phenylpropyl]carbamoyl]-2-naphthyl]-1-naphthamide

> <PUBCHEM_IUPAC_INCHI>
InChI=1S/C42H40N2O8/c1-21-15-27-29(17-31(45)39(49)35(27)41(51)43-19-23(3)25-11-7-5-8-12-25)37(47)33(21)34-22(2)16-28-30(38(34)48)18-32(46)40(50)36(28)42(52)44-20-24(4)26-13-9-6-10-14-26/h5-18,23-24,45-50H,19-20H2,1-4H3,(H,43,51)(H,44,52)/t23-,24-/m0/s1

> <PUBCHEM_IUPAC_INCHIKEY>
RAYNZUHYMMLQQA-ZEQRLZLVSA-N

> <PUBCHEM_XLOGP3_AA>
8.9

> <PUBCHEM_EXACT_MASS>
700.278466

> <PUBCHEM_MOLECULAR_FORMULA>
C42H40N2O8

> <PUBCHEM_MOLECULAR_WEIGHT>
700.8

> <PUBCHEM_OPENEYE_CAN_SMILES>
CC1=CC2=C(C(=C(C=C2C(=C1C3=C(C4=CC(=C(C(=C4C=C3C)C(=O)NCC(C)C5=CC=CC=C5)O)O)O)O)O)O)C(=O)NCC(C)C6=CC=CC=C6

> <PUBCHEM_OPENEYE_ISO_SMILES>
CC1=CC2=C(C(=C(C=C2C(=C1C3=C(C4=CC(=C(C(=C4C=C3C)C(=O)NC[C@H](C)C5=CC=CC=C5)O)O)O)O)O)O)C(=O)NC[C@H](C)C6=CC=CC=C6

> <PUBCHEM_CACTVS_TPSA>
180

> <PUBCHEM_MONOISOTOPIC_WEIGHT>
700.278466

> <PUBCHEM_TOTAL_CHARGE>
0

> <PUBCHEM_HEAVY_ATOM_COUNT>
52

> <PUBCHEM_ATOM_DEF_STEREO_COUNT>
2

> <PUBCHEM_ATOM_UDEF_STEREO_COUNT>
0

> <PUBCHEM_BOND_DEF_STEREO_COUNT>
0

> <PUBCHEM_BOND_UDEF_STEREO_COUNT>
0

> <PUBCHEM_ISOTOPIC_ATOM_COUNT>
0

> <PUBCHEM_COMPONENT_COUNT>
1

> <PUBCHEM_CACTVS_TAUTO_COUNT>
-1

> <PUBCHEM_COORDINATE_TYPE>
1
5
255

> <PUBCHEM_BONDANNOTATIONS>
11  15  8
11  19  8
12  16  8
12  20  8
13  17  8
13  21  8
13  23  8
14  18  8
14  22  8
14  24  8
15  21  8
16  22  8
17  19  8
17  27  8
18  20  8
18  28  8
23  33  8
24  34  8
25  41  6
26  42  6
27  37  8
28  38  8
33  37  8
34  38  8
39  43  8
39  45  8
40  44  8
40  46  8
43  47  8
44  48  8
45  49  8
46  50  8
47  51  8
48  52  8
49  51  8
50  52  8

$$$$
66577015
  -OEChem-02182015172D

 52 54  0     0  0  0  0  0  0999 V2000
    3.9709    0.0000    0.0000 Cl  0  0  0  0  0  0  0  0  0  0  0  0
    2.2690    7.1200    0.0000 F   0  0  0  0  0  0  0  0  0  0  0  0
    1.2690    6.1200    0.0000 F   0  0  0  0  0  0  0  0  0  0  0  0
    3.2690    6.1200    0.0000 F   0  0  0  0  0  0  0  0  0  0  0  0
    4.8671    9.6200    0.0000 O   0  0  0  0  0  0  0  0  0  0  0  0
    8.3312    3.6200    0.0000 O   0  0  0  0  0  0  0  0  0  0  0  0
    4.8671    7.6200    0.0000 N   0  0  0  0  0  0  0  0  0  0  0  0
    6.5991    4.6200    0.0000 N   0  0  0  0  0  0  0  0  0  0  0  0
    5.7331    6.1200    0.0000 N   0  0  0  0  0  0  0  0  0  0  0  0
    4.8671    4.6200    0.0000 N   0  0  0  0  0  0  0  0  0  0  0  0
    2.2690    3.1200    0.0000 N   0  0  0  0  0  0  0  0  0  0  0  0
    0.5369    3.1200    0.0000 N   0  0  0  0  0  0  0  0  0  0  0  0
    4.0010    8.1200    0.0000 C   0  0  0  0  0  0  0  0  0  0  0  0
    5.7331    8.1200    0.0000 C   0  0  0  0  0  0  0  0  0  0  0  0
    7.4651    5.1200    0.0000 C   0  0  0  0  0  0  0  0  0  0  0  0
    6.5991    3.6200    0.0000 C   0  0  0  0  0  0  0  0  0  0  0  0
    4.8671    6.6200    0.0000 C   0  0  0  0  0  0  0  0  0  0  0  0
    4.0010    9.1200    0.0000 C   0  0  0  0  0  0  0  0  0  0  0  0
    5.7331    9.1200    0.0000 C   0  0  0  0  0  0  0  0  0  0  0  0
    5.7331    5.1200    0.0000 C   0  0  0  0  0  0  0  0  0  0  0  0
    8.3312    4.6200    0.0000 C   0  0  0  0  0  0  0  0  0  0  0  0
    7.4651    3.1200    0.0000 C   0  0  0  0  0  0  0  0  0  0  0  0
    4.0010    6.1200    0.0000 C   0  0  0  0  0  0  0  0  0  0  0  0
    4.0010    5.1200    0.0000 C   0  0  0  0  0  0  0  0  0  0  0  0
    3.1350    4.6200    0.0000 C   0  0  0  0  0  0  0  0  0  0  0  0
    2.2690    5.1200    0.0000 C   0  0  0  0  0  0  0  0  0  0  0  0
    3.1350    3.6200    0.0000 C   0  0  0  0  0  0  0  0  0  0  0  0
    1.4030    4.6200    0.0000 C   0  0  0  0  0  0  0  0  0  0  0  0
    2.2690    6.1200    0.0000 C   0  0  0  0  0  0  0  0  0  0  0  0
    1.4030    3.6200    0.0000 C   0  0  0  0  0  0  0  0  0  0  0  0
    3.3905    8.2277    0.0000 H   0  0  0  0  0  0  0  0  0  0  0  0
    3.7890    7.5374    0.0000 H   0  0  0  0  0  0  0  0  0  0  0  0
    5.9451    7.5374    0.0000 H   0  0  0  0  0  0  0  0  0  0  0  0
    6.3437    8.2277    0.0000 H   0  0  0  0  0  0  0  0  0  0  0  0
    7.8637    5.5950    0.0000 H   0  0  0  0  0  0  0  0  0  0  0  0
    7.0666    5.5950    0.0000 H   0  0  0  0  0  0  0  0  0  0  0  0
    5.9885    3.7277    0.0000 H   0  0  0  0  0  0  0  0  0  0  0  0
    6.3871    3.0374    0.0000 H   0  0  0  0  0  0  0  0  0  0  0  0
    3.7890    9.7026    0.0000 H   0  0  0  0  0  0  0  0  0  0  0  0
    3.3905    9.0123    0.0000 H   0  0  0  0  0  0  0  0  0  0  0  0
    6.3437    9.0123    0.0000 H   0  0  0  0  0  0  0  0  0  0  0  0
    5.9451    9.7026    0.0000 H   0  0  0  0  0  0  0  0  0  0  0  0
    8.9417    4.5123    0.0000 H   0  0  0  0  0  0  0  0  0  0  0  0
    8.5432    5.2026    0.0000 H   0  0  0  0  0  0  0  0  0  0  0  0
    7.0666    2.6450    0.0000 H   0  0  0  0  0  0  0  0  0  0  0  0
    7.8637    2.6450    0.0000 H   0  0  0  0  0  0  0  0  0  0  0  0
    3.4641    6.4300    0.0000 H   0  0  0  0  0  0  0  0  0  0  0  0
    3.6720    3.3100    0.0000 H   0  0  0  0  0  0  0  0  0  0  0  0
    0.8660    4.9300    0.0000 H   0  0  0  0  0  0  0  0  0  0  0  0
    0.5369    2.5000    0.0000 H   0  0  0  0  0  0  0  0  0  0  0  0
    0.0000    3.4300    0.0000 H   0  0  0  0  0  0  0  0  0  0  0  0
    4.9709    0.0000    0.0000 H   0  0  0  0  0  0  0  0  0  0  0  0
  1 52  1  0  0  0  0
  2 29  1  0  0  0  0
  3 29  1  0  0  0  0
  4 29  1  0  0  0  0
  5 18  1  0  0  0  0
  5 19  1  0  0  0  0
  6 21  1  0  0  0  0
  6 22  1  0  0  0  0
  7 13  1  0  0  0  0
  7 14  1  0  0  0  0
  7 17  1  0  0  0  0
  8 15  1  0  0  0  0
  8 16  1  0  0  0  0
  8 20  1  0  0  0  0
  9 17  2  0  0  0  0
  9 20  1  0  0  0  0
 10 20  2  0  0  0  0
 10 24  1  0  0  0  0
 11 27  1  0  0  0  0
 11 30  2  0  0  0  0
 12 30  1  0  0  0  0
 12 50  1  0  0  0  0
 12 51  1  0  0  0  0
 13 18  1  0  0  0  0
 13 31  1  0  0  0  0
 13 32  1  0  0  0  0
 14 19  1  0  0  0  0
 14 33  1  0  0  0  0
 14 34  1  0  0  0  0
 15 21  1  0  0  0  0
 15 35  1  0  0  0  0
 15 36  1  0  0  0  0
 16 22  1  0  0  0  0
 16 37  1  0  0  0  0
 16 38  1  0  0  0  0
 17 23  1  0  0  0  0
 18 39  1  0  0  0  0
 18 40  1  0  0  0  0
 19 41  1  0  0  0  0
 19 42  1  0  0  0  0
 21 43  1  0  0  0  0
 21 44  1  0  0  0  0
 22 45  1  0  0  0  0
 22 46  1  0  0  0  0
 23 24  2  0  0  0  0
 23 47  1  0  0  0  0
 24 25  1  0  0  0  0
 25 26  1  0  0  0  0
 25 27  2  0  0  0  0
 26 28  2  0  0  0  0
 26 29  1  0  0  0  0
 27 48  1  0  0  0  0
 28 30  1  0  0  0  0
 28 49  1  0  0  0  0
M  END
> <PUBCHEM_COMPOUND_CID>
66577015

> <PUBCHEM_COMPOUND_CANONICALIZED>
1

> <PUBCHEM_CACTVS_COMPLEXITY>
530

> <PUBCHEM_CACTVS_HBOND_ACCEPTOR>
11

> <PUBCHEM_CACTVS_HBOND_DONOR>
2

> <PUBCHEM_CACTVS_ROTATABLE_BOND>
3

> <PUBCHEM_CACTVS_SUBSKEYS>
AAADceB7sYAEAAAAAAAAAAAAAAAAAAAAAAAsWLFgAAAAAAAB4AAAHwAQAAAADAjhnhY9sJdIFACgAzZnZACCgCkxAqAB2CA4ZJiKKOLA2NGHJAhokALYyCcQgAAOgAAAAAAAAAAAAAAAAAAAAAAAAAAAAA==

> <PUBCHEM_IUPAC_OPENEYE_NAME>
5-(2,6-dimorpholinopyrimidin-4-yl)-4-(trifluoromethyl)pyridin-2-amine;hydrochloride

> <PUBCHEM_IUPAC_CAS_NAME>
5-[2,6-bis(4-morpholinyl)-4-pyrimidinyl]-4-(trifluoromethyl)-2-pyridinamine;hydrochloride

> <PUBCHEM_IUPAC_NAME_MARKUP>
5-(2,6-dimorpholin-4-ylpyrimidin-4-yl)-4-(trifluoromethyl)pyridin-2-amine;hydrochloride

> <PUBCHEM_IUPAC_NAME>
5-(2,6-dimorpholin-4-ylpyrimidin-4-yl)-4-(trifluoromethyl)pyridin-2-amine;hydrochloride

> <PUBCHEM_IUPAC_SYSTEMATIC_NAME>
5-(2,6-dimorpholin-4-ylpyrimidin-4-yl)-4-(trifluoromethyl)pyridin-2-amine;hydrochloride

> <PUBCHEM_IUPAC_TRADITIONAL_NAME>
[5-(2,6-dimorpholinopyrimidin-4-yl)-4-(trifluoromethyl)-2-pyridyl]amine;hydrochloride

> <PUBCHEM_IUPAC_INCHI>
InChI=1S/C18H21F3N6O2.ClH/c19-18(20,21)13-9-15(22)23-11-12(13)14-10-16(26-1-5-28-6-2-26)25-17(24-14)27-3-7-29-8-4-27;/h9-11H,1-8H2,(H2,22,23);1H

> <PUBCHEM_IUPAC_INCHIKEY>
DGPLYAXBXJXEID-UHFFFAOYSA-N

> <PUBCHEM_EXACT_MASS>
446.144486

> <PUBCHEM_MOLECULAR_FORMULA>
C18H22ClF3N6O2

> <PUBCHEM_MOLECULAR_WEIGHT>
446.9

> <PUBCHEM_OPENEYE_CAN_SMILES>
C1COCCN1C2=NC(=NC(=C2)C3=CN=C(C=C3C(F)(F)F)N)N4CCOCC4.Cl

> <PUBCHEM_OPENEYE_ISO_SMILES>
C1COCCN1C2=NC(=NC(=C2)C3=CN=C(C=C3C(F)(F)F)N)N4CCOCC4.Cl

> <PUBCHEM_CACTVS_TPSA>
89.6

> <PUBCHEM_MONOISOTOPIC_WEIGHT>
446.144486

> <PUBCHEM_TOTAL_CHARGE>
0

> <PUBCHEM_HEAVY_ATOM_COUNT>
30

> <PUBCHEM_ATOM_DEF_STEREO_COUNT>
0

> <PUBCHEM_ATOM_UDEF_STEREO_COUNT>
0

> <PUBCHEM_BOND_DEF_STEREO_COUNT>
0

> <PUBCHEM_BOND_UDEF_STEREO_COUNT>
0

> <PUBCHEM_ISOTOPIC_ATOM_COUNT>
0

> <PUBCHEM_COMPONENT_COUNT>
2

> <PUBCHEM_CACTVS_TAUTO_COUNT>
-1

> <PUBCHEM_COORDINATE_TYPE>
1
5
255

> <PUBCHEM_BONDANNOTATIONS>
10  20  8
10  24  8
11  27  8
11  30  8
17  23  8
23  24  8
25  26  8
25  27  8
26  28  8
28  30  8
9  17  8
9  20  8

$$$$
46843057
  -OEChem-02182015172D

 44 46  0     1  0  0  0  0  0999 V2000
    5.7634    3.4045    0.0000 Cl  0  0  0  0  0  0  0  0  0  0  0  0
    2.0000    2.5955    0.0000 Cl  0  0  0  0  0  0  0  0  0  0  0  0
    5.4846    1.6444    0.0000 S   0  0  0  0  0  0  0  0  0  0  0  0
    2.9435   -4.9434    0.0000 F   0  0  0  0  0  0  0  0  0  0  0  0
    3.8096   -0.4434    0.0000 O   0  0  0  0  0  0  0  0  0  0  0  0
    5.5416   -0.4434    0.0000 N   0  0  0  0  0  0  0  0  0  0  0  0
    7.2736   -1.4434    0.0000 N   0  0  0  0  0  0  0  0  0  0  0  0
    3.8968    4.3556    0.0000 N   0  0  0  0  0  0  0  0  0  0  0  0
    3.0878    4.9434    0.0000 N   0  0  0  0  0  0  0  0  0  0  0  0
    5.5416   -1.4434    0.0000 C   0  0  1  0  0  0  0  0  0  0  0  0
    4.6756   -1.9434    0.0000 C   0  0  0  0  0  0  0  0  0  0  0  0
    6.4076   -1.9434    0.0000 C   0  0  0  0  0  0  0  0  0  0  0  0
    4.6756   -2.9434    0.0000 C   0  0  0  0  0  0  0  0  0  0  0  0
    4.6756    0.0566    0.0000 C   0  0  0  0  0  0  0  0  0  0  0  0
    4.6756    1.0566    0.0000 C   0  0  0  0  0  0  0  0  0  0  0  0
    4.1756    2.5955    0.0000 C   0  0  0  0  0  0  0  0  0  0  0  0
    3.8096   -3.4434    0.0000 C   0  0  0  0  0  0  0  0  0  0  0  0
    5.5416   -3.4434    0.0000 C   0  0  0  0  0  0  0  0  0  0  0  0
    3.8666    1.6444    0.0000 C   0  0  0  0  0  0  0  0  0  0  0  0
    3.5878    3.4045    0.0000 C   0  0  0  0  0  0  0  0  0  0  0  0
    5.1756    2.5955    0.0000 C   0  0  0  0  0  0  0  0  0  0  0  0
    3.8096   -4.4434    0.0000 C   0  0  0  0  0  0  0  0  0  0  0  0
    5.5416   -4.4434    0.0000 C   0  0  0  0  0  0  0  0  0  0  0  0
    2.5878    3.4045    0.0000 C   0  0  0  0  0  0  0  0  0  0  0  0
    4.6756   -4.9434    0.0000 C   0  0  0  0  0  0  0  0  0  0  0  0
    4.8479    4.6646    0.0000 C   0  0  0  0  0  0  0  0  0  0  0  0
    2.2788    4.3556    0.0000 C   0  0  0  0  0  0  0  0  0  0  0  0
    6.0785   -1.1334    0.0000 H   0  0  0  0  0  0  0  0  0  0  0  0
    4.4635   -1.3607    0.0000 H   0  0  0  0  0  0  0  0  0  0  0  0
    4.0650   -2.0510    0.0000 H   0  0  0  0  0  0  0  0  0  0  0  0
    6.0091   -2.4183    0.0000 H   0  0  0  0  0  0  0  0  0  0  0  0
    6.8062   -2.4183    0.0000 H   0  0  0  0  0  0  0  0  0  0  0  0
    6.0785   -0.1334    0.0000 H   0  0  0  0  0  0  0  0  0  0  0  0
    3.2726   -3.1334    0.0000 H   0  0  0  0  0  0  0  0  0  0  0  0
    6.0785   -3.1334    0.0000 H   0  0  0  0  0  0  0  0  0  0  0  0
    3.2769    1.4528    0.0000 H   0  0  0  0  0  0  0  0  0  0  0  0
    7.8106   -1.7534    0.0000 H   0  0  0  0  0  0  0  0  0  0  0  0
    7.2736   -0.8234    0.0000 H   0  0  0  0  0  0  0  0  0  0  0  0
    6.0785   -4.7534    0.0000 H   0  0  0  0  0  0  0  0  0  0  0  0
    4.6756   -5.5634    0.0000 H   0  0  0  0  0  0  0  0  0  0  0  0
    5.0395    4.0749    0.0000 H   0  0  0  0  0  0  0  0  0  0  0  0
    5.4375    4.8562    0.0000 H   0  0  0  0  0  0  0  0  0  0  0  0
    4.6563    5.2542    0.0000 H   0  0  0  0  0  0  0  0  0  0  0  0
    1.6891    4.5472    0.0000 H   0  0  0  0  0  0  0  0  0  0  0  0
  1 21  1  0  0  0  0
  2 24  1  0  0  0  0
  3 15  1  0  0  0  0
  3 21  1  0  0  0  0
  4 22  1  0  0  0  0
  5 14  2  0  0  0  0
 10  6  1  6  0  0  0
  6 14  1  0  0  0  0
  6 33  1  0  0  0  0
  7 12  1  0  0  0  0
  7 37  1  0  0  0  0
  7 38  1  0  0  0  0
  8  9  1  0  0  0  0
  8 20  1  0  0  0  0
  8 26  1  0  0  0  0
  9 27  2  0  0  0  0
 10 11  1  0  0  0  0
 10 12  1  0  0  0  0
 10 28  1  0  0  0  0
 11 13  1  0  0  0  0
 11 29  1  0  0  0  0
 11 30  1  0  0  0  0
 12 31  1  0  0  0  0
 12 32  1  0  0  0  0
 13 17  2  0  0  0  0
 13 18  1  0  0  0  0
 14 15  1  0  0  0  0
 15 19  2  0  0  0  0
 16 19  1  0  0  0  0
 16 20  1  0  0  0  0
 16 21  2  0  0  0  0
 17 22  1  0  0  0  0
 17 34  1  0  0  0  0
 18 23  2  0  0  0  0
 18 35  1  0  0  0  0
 19 36  1  0  0  0  0
 20 24  2  0  0  0  0
 22 25  2  0  0  0  0
 23 25  1  0  0  0  0
 23 39  1  0  0  0  0
 24 27  1  0  0  0  0
 25 40  1  0  0  0  0
 26 41  1  0  0  0  0
 26 42  1  0  0  0  0
 26 43  1  0  0  0  0
 27 44  1  0  0  0  0
M  END
> <PUBCHEM_COMPOUND_CID>
46843057

> <PUBCHEM_COMPOUND_CANONICALIZED>
1

> <PUBCHEM_CACTVS_COMPLEXITY>
520

> <PUBCHEM_CACTVS_HBOND_ACCEPTOR>
5

> <PUBCHEM_CACTVS_HBOND_DONOR>
2

> <PUBCHEM_CACTVS_ROTATABLE_BOND>
6

> <PUBCHEM_CACTVS_SUBSKEYS>
AAADceB7oQBGAAAAAAAAAAAAAAAAAWJAAAAwAAAAAAAAAAAB8AAAHwYYAAAADCrB3iw+gZLIAAiuAzV3VACTBIAljRBY2LkoRtgIYLLh19HUpQhgngDoyYcYiYCeAAAAAAAAAAAAAAAAAAAAAAAAAAAAAA==

> <PUBCHEM_IUPAC_OPENEYE_NAME>
N-[(1S)-1-(aminomethyl)-2-(3-fluorophenyl)ethyl]-5-chloro-4-(4-chloro-2-methyl-pyrazol-3-yl)thiophene-2-carboxamide

> <PUBCHEM_IUPAC_CAS_NAME>
N-[(2S)-1-amino-3-(3-fluorophenyl)propan-2-yl]-5-chloro-4-(4-chloro-2-methyl-3-pyrazolyl)-2-thiophenecarboxamide

> <PUBCHEM_IUPAC_NAME_MARKUP>
<I>N</I>-[(2<I>S</I>)-1-amino-3-(3-fluorophenyl)propan-2-yl]-5-chloro-4-(4-chloro-2-methylpyrazol-3-yl)thiophene-2-carboxamide

> <PUBCHEM_IUPAC_NAME>
N-[(2S)-1-amino-3-(3-fluorophenyl)propan-2-yl]-5-chloro-4-(4-chloro-2-methylpyrazol-3-yl)thiophene-2-carboxamide

> <PUBCHEM_IUPAC_SYSTEMATIC_NAME>
N-[(2S)-1-azanyl-3-(3-fluorophenyl)propan-2-yl]-5-chloranyl-4-(4-chloranyl-2-methyl-pyrazol-3-yl)thiophene-2-carboxamide

> <PUBCHEM_IUPAC_TRADITIONAL_NAME>
N-[(1S)-1-(aminomethyl)-2-(3-fluorophenyl)ethyl]-5-chloro-4-(4-chloro-2-methyl-pyrazol-3-yl)thiophene-2-carboxamide

> <PUBCHEM_IUPAC_INCHI>
InChI=1S/C18H17Cl2FN4OS/c1-25-16(14(19)9-23-25)13-7-15(27-17(13)20)18(26)24-12(8-22)6-10-3-2-4-11(21)5-10/h2-5,7,9,12H,6,8,22H2,1H3,(H,24,26)/t12-/m0/s1

> <PUBCHEM_IUPAC_INCHIKEY>
AFJRDFWMXUECEW-LBPRGKRZSA-N

> <PUBCHEM_XLOGP3_AA>
4

> <PUBCHEM_EXACT_MASS>
426.048416

> <PUBCHEM_MOLECULAR_FORMULA>
C18H17Cl2FN4OS

> <PUBCHEM_MOLECULAR_WEIGHT>
427.3

> <PUBCHEM_OPENEYE_CAN_SMILES>
CN1C(=C(C=N1)Cl)C2=C(SC(=C2)C(=O)NC(CC3=CC(=CC=C3)F)CN)Cl

> <PUBCHEM_OPENEYE_ISO_SMILES>
CN1C(=C(C=N1)Cl)C2=C(SC(=C2)C(=O)N[C@@H](CC3=CC(=CC=C3)F)CN)Cl

> <PUBCHEM_CACTVS_TPSA>
101

> <PUBCHEM_MONOISOTOPIC_WEIGHT>
426.048416

> <PUBCHEM_TOTAL_CHARGE>
0

> <PUBCHEM_HEAVY_ATOM_COUNT>
27

> <PUBCHEM_ATOM_DEF_STEREO_COUNT>
1

> <PUBCHEM_ATOM_UDEF_STEREO_COUNT>
0

> <PUBCHEM_BOND_DEF_STEREO_COUNT>
0

> <PUBCHEM_BOND_UDEF_STEREO_COUNT>
0

> <PUBCHEM_ISOTOPIC_ATOM_COUNT>
0

> <PUBCHEM_COMPONENT_COUNT>
1

> <PUBCHEM_CACTVS_TAUTO_COUNT>
-1

> <PUBCHEM_COORDINATE_TYPE>
1
5
255

> <PUBCHEM_BONDANNOTATIONS>
13  17  8
13  18  8
15  19  8
16  19  8
16  21  8
17  22  8
18  23  8
20  24  8
22  25  8
23  25  8
24  27  8
3  15  8
3  21  8
10  6  6
8  20  8
8  9  8
9  27  8

$$$$
644241
  -OEChem-02182015172D

 61 65  0     0  0  0  0  0  0999 V2000
    2.3660    1.1921    0.0000 F   0  0  0  0  0  0  0  0  0  0  0  0
    2.0000   -0.1739    0.0000 F   0  0  0  0  0  0  0  0  0  0  0  0
    3.3660   -0.5400    0.0000 F   0  0  0  0  0  0  0  0  0  0  0  0
    5.4641   -1.1739    0.0000 O   0  0  0  0  0  0  0  0  0  0  0  0
    4.5981    3.3261    0.0000 N   0  0  0  0  0  0  0  0  0  0  0  0
    6.3301    0.3261    0.0000 N   0  0  0  0  0  0  0  0  0  0  0  0
    8.0622   -3.6739    0.0000 N   0  0  0  0  0  0  0  0  0  0  0  0
    4.0981    4.8649    0.0000 N   0  0  0  0  0  0  0  0  0  0  0  0
    6.3301   -3.6739    0.0000 N   0  0  0  0  0  0  0  0  0  0  0  0
    7.1962   -5.1739    0.0000 N   0  0  0  0  0  0  0  0  0  0  0  0
    2.8660   -3.6739    0.0000 N   0  0  0  0  0  0  0  0  0  0  0  0
    4.5981    2.3261    0.0000 C   0  0  0  0  0  0  0  0  0  0  0  0
    5.4641    0.8261    0.0000 C   0  0  0  0  0  0  0  0  0  0  0  0
    3.7320    0.8261    0.0000 C   0  0  0  0  0  0  0  0  0  0  0  0
    5.4641    1.8261    0.0000 C   0  0  0  0  0  0  0  0  0  0  0  0
    3.7320    1.8261    0.0000 C   0  0  0  0  0  0  0  0  0  0  0  0
    4.5981    0.3261    0.0000 C   0  0  0  0  0  0  0  0  0  0  0  0
    7.1962   -1.1739    0.0000 C   0  0  0  0  0  0  0  0  0  0  0  0
    8.0622   -2.6739    0.0000 C   0  0  0  0  0  0  0  0  0  0  0  0
    8.9282   -2.1739    0.0000 C   0  0  0  0  0  0  0  0  0  0  0  0
    7.1962   -2.1739    0.0000 C   0  0  0  0  0  0  0  0  0  0  0  0
    6.3301   -0.6739    0.0000 C   0  0  0  0  0  0  0  0  0  0  0  0
    5.4071    3.9139    0.0000 C   0  0  0  0  0  0  0  0  0  0  0  0
    8.0622   -0.6739    0.0000 C   0  0  0  0  0  0  0  0  0  0  0  0
    8.9282   -1.1739    0.0000 C   0  0  0  0  0  0  0  0  0  0  0  0
    2.8660    0.3261    0.0000 C   0  0  0  0  0  0  0  0  0  0  0  0
    3.7891    3.9139    0.0000 C   0  0  0  0  0  0  0  0  0  0  0  0
    5.0981    4.8649    0.0000 C   0  0  0  0  0  0  0  0  0  0  0  0
    9.7942   -2.6739    0.0000 C   0  0  0  0  0  0  0  0  0  0  0  0
    7.1962   -4.1739    0.0000 C   0  0  0  0  0  0  0  0  0  0  0  0
    5.6859    5.6739    0.0000 C   0  0  0  0  0  0  0  0  0  0  0  0
    5.4641   -4.1739    0.0000 C   0  0  0  0  0  0  0  0  0  0  0  0
    4.5981   -3.6739    0.0000 C   0  0  0  0  0  0  0  0  0  0  0  0
    5.4641   -5.1739    0.0000 C   0  0  0  0  0  0  0  0  0  0  0  0
    6.3301   -5.6739    0.0000 C   0  0  0  0  0  0  0  0  0  0  0  0
    4.5981   -2.6739    0.0000 C   0  0  0  0  0  0  0  0  0  0  0  0
    3.7320   -4.1739    0.0000 C   0  0  0  0  0  0  0  0  0  0  0  0
    3.7320   -2.1739    0.0000 C   0  0  0  0  0  0  0  0  0  0  0  0
    2.8660   -2.6739    0.0000 C   0  0  0  0  0  0  0  0  0  0  0  0
    6.0010    2.1361    0.0000 H   0  0  0  0  0  0  0  0  0  0  0  0
    3.1951    2.1361    0.0000 H   0  0  0  0  0  0  0  0  0  0  0  0
    4.5981   -0.2939    0.0000 H   0  0  0  0  0  0  0  0  0  0  0  0
    6.8671    0.6361    0.0000 H   0  0  0  0  0  0  0  0  0  0  0  0
    6.6592   -2.4839    0.0000 H   0  0  0  0  0  0  0  0  0  0  0  0
    5.9967    3.7223    0.0000 H   0  0  0  0  0  0  0  0  0  0  0  0
    8.0622   -0.0539    0.0000 H   0  0  0  0  0  0  0  0  0  0  0  0
    9.4651   -0.8639    0.0000 H   0  0  0  0  0  0  0  0  0  0  0  0
    3.1994    3.7223    0.0000 H   0  0  0  0  0  0  0  0  0  0  0  0
    8.5991   -3.9839    0.0000 H   0  0  0  0  0  0  0  0  0  0  0  0
    9.4842   -3.2109    0.0000 H   0  0  0  0  0  0  0  0  0  0  0  0
   10.3312   -2.9839    0.0000 H   0  0  0  0  0  0  0  0  0  0  0  0
   10.1042   -2.1370    0.0000 H   0  0  0  0  0  0  0  0  0  0  0  0
    6.1874    5.3095    0.0000 H   0  0  0  0  0  0  0  0  0  0  0  0
    6.0503    6.1755    0.0000 H   0  0  0  0  0  0  0  0  0  0  0  0
    5.1843    6.0384    0.0000 H   0  0  0  0  0  0  0  0  0  0  0  0
    4.9272   -5.4839    0.0000 H   0  0  0  0  0  0  0  0  0  0  0  0
    6.3301   -6.2939    0.0000 H   0  0  0  0  0  0  0  0  0  0  0  0
    5.1350   -2.3639    0.0000 H   0  0  0  0  0  0  0  0  0  0  0  0
    3.7320   -4.7939    0.0000 H   0  0  0  0  0  0  0  0  0  0  0  0
    3.7320   -1.5539    0.0000 H   0  0  0  0  0  0  0  0  0  0  0  0
    2.3291   -2.3639    0.0000 H   0  0  0  0  0  0  0  0  0  0  0  0
  1 26  1  0  0  0  0
  2 26  1  0  0  0  0
  3 26  1  0  0  0  0
  4 22  2  0  0  0  0
  5 12  1  0  0  0  0
  5 23  1  0  0  0  0
  5 27  1  0  0  0  0
  6 13  1  0  0  0  0
  6 22  1  0  0  0  0
  6 43  1  0  0  0  0
  7 19  1  0  0  0  0
  7 30  1  0  0  0  0
  7 49  1  0  0  0  0
  8 27  2  0  0  0  0
  8 28  1  0  0  0  0
  9 30  1  0  0  0  0
  9 32  2  0  0  0  0
 10 30  2  0  0  0  0
 10 35  1  0  0  0  0
 11 37  1  0  0  0  0
 11 39  2  0  0  0  0
 12 15  1  0  0  0  0
 12 16  2  0  0  0  0
 13 15  2  0  0  0  0
 13 17  1  0  0  0  0
 14 16  1  0  0  0  0
 14 17  2  0  0  0  0
 14 26  1  0  0  0  0
 15 40  1  0  0  0  0
 16 41  1  0  0  0  0
 17 42  1  0  0  0  0
 18 21  2  0  0  0  0
 18 22  1  0  0  0  0
 18 24  1  0  0  0  0
 19 20  2  0  0  0  0
 19 21  1  0  0  0  0
 20 25  1  0  0  0  0
 20 29  1  0  0  0  0
 21 44  1  0  0  0  0
 23 28  2  0  0  0  0
 23 45  1  0  0  0  0
 24 25  2  0  0  0  0
 24 46  1  0  0  0  0
 25 47  1  0  0  0  0
 27 48  1  0  0  0  0
 28 31  1  0  0  0  0
 29 50  1  0  0  0  0
 29 51  1  0  0  0  0
 29 52  1  0  0  0  0
 31 53  1  0  0  0  0
 31 54  1  0  0  0  0
 31 55  1  0  0  0  0
 32 33  1  0  0  0  0
 32 34  1  0  0  0  0
 33 36  1  0  0  0  0
 33 37  2  0  0  0  0
 34 35  2  0  0  0  0
 34 56  1  0  0  0  0
 35 57  1  0  0  0  0
 36 38  2  0  0  0  0
 36 58  1  0  0  0  0
 37 59  1  0  0  0  0
 38 39  1  0  0  0  0
 38 60  1  0  0  0  0
 39 61  1  0  0  0  0
M  END
> <PUBCHEM_COMPOUND_CID>
644241

> <PUBCHEM_COMPOUND_CANONICALIZED>
1

> <PUBCHEM_CACTVS_COMPLEXITY>
817

> <PUBCHEM_CACTVS_HBOND_ACCEPTOR>
9

> <PUBCHEM_CACTVS_HBOND_DONOR>
2

> <PUBCHEM_CACTVS_ROTATABLE_BOND>
6

> <PUBCHEM_CACTVS_SUBSKEYS>
AAADceB7oYAAAAAAAAAAAAAAAAAAAWAAAAA8eIEAAAAAAAAB/AAAHwAQAAAADAjBnhQ/0JfMEACoAzV3dACCgC01EqAJ2CE4dNiIaPLA3dGUJQholALIyacciACOQAAAQAQCAACAAACACAQAAAAAAAAAAA==

> <PUBCHEM_IUPAC_OPENEYE_NAME>
4-methyl-N-[3-(4-methylimidazol-1-yl)-5-(trifluoromethyl)phenyl]-3-[[4-(3-pyridyl)pyrimidin-2-yl]amino]benzamide

> <PUBCHEM_IUPAC_CAS_NAME>
4-methyl-N-[3-(4-methyl-1-imidazolyl)-5-(trifluoromethyl)phenyl]-3-[[4-(3-pyridinyl)-2-pyrimidinyl]amino]benzamide

> <PUBCHEM_IUPAC_NAME_MARKUP>
4-methyl-<I>N</I>-[3-(4-methylimidazol-1-yl)-5-(trifluoromethyl)phenyl]-3-[(4-pyridin-3-ylpyrimidin-2-yl)amino]benzamide

> <PUBCHEM_IUPAC_NAME>
4-methyl-N-[3-(4-methylimidazol-1-yl)-5-(trifluoromethyl)phenyl]-3-[(4-pyridin-3-ylpyrimidin-2-yl)amino]benzamide

> <PUBCHEM_IUPAC_SYSTEMATIC_NAME>
4-methyl-N-[3-(4-methylimidazol-1-yl)-5-(trifluoromethyl)phenyl]-3-[(4-pyridin-3-ylpyrimidin-2-yl)amino]benzamide

> <PUBCHEM_IUPAC_TRADITIONAL_NAME>
4-methyl-N-[3-(4-methylimidazol-1-yl)-5-(trifluoromethyl)phenyl]-3-[[4-(3-pyridyl)pyrimidin-2-yl]amino]benzamide

> <PUBCHEM_IUPAC_INCHI>
InChI=1S/C28H22F3N7O/c1-17-5-6-19(10-25(17)37-27-33-9-7-24(36-27)20-4-3-8-32-14-20)26(39)35-22-11-21(28(29,30)31)12-23(13-22)38-15-18(2)34-16-38/h3-16H,1-2H3,(H,35,39)(H,33,36,37)

> <PUBCHEM_IUPAC_INCHIKEY>
HHZIURLSWUIHRB-UHFFFAOYSA-N

> <PUBCHEM_XLOGP3_AA>
4.9

> <PUBCHEM_EXACT_MASS>
529.183793

> <PUBCHEM_MOLECULAR_FORMULA>
C28H22F3N7O

> <PUBCHEM_MOLECULAR_WEIGHT>
529.5

> <PUBCHEM_OPENEYE_CAN_SMILES>
CC1=C(C=C(C=C1)C(=O)NC2=CC(=CC(=C2)C(F)(F)F)N3C=C(N=C3)C)NC4=NC=CC(=N4)C5=CN=CC=C5

> <PUBCHEM_OPENEYE_ISO_SMILES>
CC1=C(C=C(C=C1)C(=O)NC2=CC(=CC(=C2)C(F)(F)F)N3C=C(N=C3)C)NC4=NC=CC(=N4)C5=CN=CC=C5

> <PUBCHEM_CACTVS_TPSA>
97.6

> <PUBCHEM_MONOISOTOPIC_WEIGHT>
529.183793

> <PUBCHEM_TOTAL_CHARGE>
0

> <PUBCHEM_HEAVY_ATOM_COUNT>
39

> <PUBCHEM_ATOM_DEF_STEREO_COUNT>
0

> <PUBCHEM_ATOM_UDEF_STEREO_COUNT>
0

> <PUBCHEM_BOND_DEF_STEREO_COUNT>
0

> <PUBCHEM_BOND_UDEF_STEREO_COUNT>
0

> <PUBCHEM_ISOTOPIC_ATOM_COUNT>
0

> <PUBCHEM_COMPONENT_COUNT>
1

> <PUBCHEM_CACTVS_TAUTO_COUNT>
-1

> <PUBCHEM_COORDINATE_TYPE>
1
5
255

> <PUBCHEM_BONDANNOTATIONS>
10  30  8
10  35  8
11  37  8
11  39  8
12  15  8
12  16  8
13  15  8
13  17  8
14  16  8
14  17  8
18  21  8
18  24  8
19  20  8
19  21  8
20  25  8
23  28  8
24  25  8
32  34  8
33  36  8
33  37  8
34  35  8
36  38  8
38  39  8
5  23  8
5  27  8
8  27  8
8  28  8
9  30  8
9  32  8

$$$$
24771867
  -OEChem-02182015172D

 57 61  0     0  0  0  0  0  0999 V2000
   13.0611   -2.5295    0.0000 Cl  0  0  0  0  0  0  0  0  0  0  0  0
   12.2450    2.5295    0.0000 F   0  0  0  0  0  0  0  0  0  0  0  0
   13.0159   -0.8478    0.0000 O   0  0  0  0  0  0  0  0  0  0  0  0
    4.7844    1.0698    0.0000 O   0  0  0  0  0  0  0  0  0  0  0  0
    2.5932   -0.9792    0.0000 O   0  0  0  0  0  0  0  0  0  0  0  0
    3.0973    0.6779    0.0000 O   0  0  0  0  0  0  0  0  0  0  0  0
   11.0320    1.4002    0.0000 N   0  0  0  0  0  0  0  0  0  0  0  0
    8.8785   -1.0768    0.0000 N   0  0  0  0  0  0  0  0  0  0  0  0
    7.6490    0.2381    0.0000 N   0  0  0  0  0  0  0  0  0  0  0  0
    7.1504   -1.4604    0.0000 N   0  0  0  0  0  0  0  0  0  0  0  0
   10.5320   -0.7905    0.0000 C   0  0  0  0  0  0  0  0  0  0  0  0
   11.4330   -0.3566    0.0000 C   0  0  0  0  0  0  0  0  0  0  0  0
    9.6311   -0.3566    0.0000 C   0  0  0  0  0  0  0  0  0  0  0  0
   11.6555    0.6183    0.0000 C   0  0  0  0  0  0  0  0  0  0  0  0
    9.4085    0.6183    0.0000 C   0  0  0  0  0  0  0  0  0  0  0  0
   10.0320    1.4002    0.0000 C   0  0  0  0  0  0  0  0  0  0  0  0
   12.6304    0.8408    0.0000 C   0  0  0  0  0  0  0  0  0  0  0  0
   10.4382   -1.8279    0.0000 C   0  0  0  0  0  0  0  0  0  0  0  0
   12.3026   -0.9300    0.0000 C   0  0  0  0  0  0  0  0  0  0  0  0
    8.4180    0.9407    0.0000 C   0  0  0  0  0  0  0  0  0  0  0  0
   11.2943   -2.4213    0.0000 C   0  0  0  0  0  0  0  0  0  0  0  0
   12.2327   -1.9693    0.0000 C   0  0  0  0  0  0  0  0  0  0  0  0
    7.8808   -0.7774    0.0000 C   0  0  0  0  0  0  0  0  0  0  0  0
   13.3106    0.1078    0.0000 C   0  0  0  0  0  0  0  0  0  0  0  0
   12.9252    1.7964    0.0000 C   0  0  0  0  0  0  0  0  0  0  0  0
   14.2855    0.3303    0.0000 C   0  0  0  0  0  0  0  0  0  0  0  0
    6.1937   -1.1694    0.0000 C   0  0  0  0  0  0  0  0  0  0  0  0
   13.9001    2.0189    0.0000 C   0  0  0  0  0  0  0  0  0  0  0  0
   14.5803    1.2859    0.0000 C   0  0  0  0  0  0  0  0  0  0  0  0
    5.9674   -0.1953    0.0000 C   0  0  0  0  0  0  0  0  0  0  0  0
    5.4633   -1.8524    0.0000 C   0  0  0  0  0  0  0  0  0  0  0  0
    5.0107    0.0958    0.0000 C   0  0  0  0  0  0  0  0  0  0  0  0
    4.2803   -0.5872    0.0000 C   0  0  0  0  0  0  0  0  0  0  0  0
    4.5066   -1.5613    0.0000 C   0  0  0  0  0  0  0  0  0  0  0  0
   13.6960   -1.5808    0.0000 C   0  0  0  0  0  0  0  0  0  0  0  0
    3.3236   -0.2962    0.0000 C   0  0  0  0  0  0  0  0  0  0  0  0
    5.5148    1.7528    0.0000 C   0  0  0  0  0  0  0  0  0  0  0  0
   10.1700    2.0046    0.0000 H   0  0  0  0  0  0  0  0  0  0  0  0
    9.4734    1.6692    0.0000 H   0  0  0  0  0  0  0  0  0  0  0  0
    9.8765   -2.0904    0.0000 H   0  0  0  0  0  0  0  0  0  0  0  0
   12.8580   -0.6546    0.0000 H   0  0  0  0  0  0  0  0  0  0  0  0
    8.2871    1.5467    0.0000 H   0  0  0  0  0  0  0  0  0  0  0  0
   11.2456   -3.0394    0.0000 H   0  0  0  0  0  0  0  0  0  0  0  0
    7.2907   -2.0644    0.0000 H   0  0  0  0  0  0  0  0  0  0  0  0
   14.7073   -0.1242    0.0000 H   0  0  0  0  0  0  0  0  0  0  0  0
   14.0829    2.6114    0.0000 H   0  0  0  0  0  0  0  0  0  0  0  0
   15.1848    1.4238    0.0000 H   0  0  0  0  0  0  0  0  0  0  0  0
    6.4203    0.2282    0.0000 H   0  0  0  0  0  0  0  0  0  0  0  0
    5.6036   -2.4563    0.0000 H   0  0  0  0  0  0  0  0  0  0  0  0
    4.0537   -1.9848    0.0000 H   0  0  0  0  0  0  0  0  0  0  0  0
   13.2415   -2.0026    0.0000 H   0  0  0  0  0  0  0  0  0  0  0  0
   14.1177   -2.0353    0.0000 H   0  0  0  0  0  0  0  0  0  0  0  0
   14.1505   -1.1591    0.0000 H   0  0  0  0  0  0  0  0  0  0  0  0
    5.9383    1.3000    0.0000 H   0  0  0  0  0  0  0  0  0  0  0  0
    5.9677    2.1763    0.0000 H   0  0  0  0  0  0  0  0  0  0  0  0
    5.0914    2.2057    0.0000 H   0  0  0  0  0  0  0  0  0  0  0  0
    2.0000   -0.7987    0.0000 H   0  0  0  0  0  0  0  0  0  0  0  0
  1 22  1  0  0  0  0
  2 25  1  0  0  0  0
  3 24  1  0  0  0  0
  3 35  1  0  0  0  0
  4 32  1  0  0  0  0
  4 37  1  0  0  0  0
  5 36  1  0  0  0  0
  5 57  1  0  0  0  0
  6 36  2  0  0  0  0
  7 14  2  0  0  0  0
  7 16  1  0  0  0  0
  8 13  2  0  0  0  0
  8 23  1  0  0  0  0
  9 20  1  0  0  0  0
  9 23  2  0  0  0  0
 10 23  1  0  0  0  0
 10 27  1  0  0  0  0
 10 44  1  0  0  0  0
 11 12  2  0  0  0  0
 11 13  1  0  0  0  0
 11 18  1  0  0  0  0
 12 14  1  0  0  0  0
 12 19  1  0  0  0  0
 13 15  1  0  0  0  0
 14 17  1  0  0  0  0
 15 16  1  0  0  0  0
 15 20  2  0  0  0  0
 16 38  1  0  0  0  0
 16 39  1  0  0  0  0
 17 24  2  0  0  0  0
 17 25  1  0  0  0  0
 18 21  2  0  0  0  0
 18 40  1  0  0  0  0
 19 22  2  0  0  0  0
 19 41  1  0  0  0  0
 20 42  1  0  0  0  0
 21 22  1  0  0  0  0
 21 43  1  0  0  0  0
 24 26  1  0  0  0  0
 25 28  2  0  0  0  0
 26 29  2  0  0  0  0
 26 45  1  0  0  0  0
 27 30  2  0  0  0  0
 27 31  1  0  0  0  0
 28 29  1  0  0  0  0
 28 46  1  0  0  0  0
 29 47  1  0  0  0  0
 30 32  1  0  0  0  0
 30 48  1  0  0  0  0
 31 34  2  0  0  0  0
 31 49  1  0  0  0  0
 32 33  2  0  0  0  0
 33 34  1  0  0  0  0
 33 36  1  0  0  0  0
 34 50  1  0  0  0  0
 35 51  1  0  0  0  0
 35 52  1  0  0  0  0
 35 53  1  0  0  0  0
 37 54  1  0  0  0  0
 37 55  1  0  0  0  0
 37 56  1  0  0  0  0
M  END
> <PUBCHEM_COMPOUND_CID>
24771867

> <PUBCHEM_COMPOUND_CANONICALIZED>
1

> <PUBCHEM_CACTVS_COMPLEXITY>
836

> <PUBCHEM_CACTVS_HBOND_ACCEPTOR>
9

> <PUBCHEM_CACTVS_HBOND_DONOR>
2

> <PUBCHEM_CACTVS_ROTATABLE_BOND>
6

> <PUBCHEM_CACTVS_SUBSKEYS>
AAADceB7uQAEAAAAAAAAAAAAAAAAAAAAAAA8YMEABAAAAAAB1AAAHwIQCAAADA7Bni4/3pbIFgCoAzT3bACCiCk1J6AJ2CEubtiML7bF/9uEdWhv8BtI+aeY2fOejAAAIgAYAAAYAABEADAAAAAAAAAAAA==

> <PUBCHEM_IUPAC_OPENEYE_NAME>
4-[[9-chloro-7-(2-fluoro-6-methoxy-phenyl)-5H-pyrimido[5,4-d][2]benzazepin-2-yl]amino]-2-methoxy-benzoic acid

> <PUBCHEM_IUPAC_CAS_NAME>
4-[[9-chloro-7-(2-fluoro-6-methoxyphenyl)-5H-pyrimido[5,4-d][2]benzazepin-2-yl]amino]-2-methoxybenzoic acid

> <PUBCHEM_IUPAC_NAME_MARKUP>
4-[[9-chloro-7-(2-fluoro-6-methoxyphenyl)-5<I>H</I>-pyrimido[5,4-d][2]benzazepin-2-yl]amino]-2-methoxybenzoic acid

> <PUBCHEM_IUPAC_NAME>
4-[[9-chloro-7-(2-fluoro-6-methoxyphenyl)-5H-pyrimido[5,4-d][2]benzazepin-2-yl]amino]-2-methoxybenzoic acid

> <PUBCHEM_IUPAC_SYSTEMATIC_NAME>
4-[[9-chloranyl-7-(2-fluoranyl-6-methoxy-phenyl)-5H-pyrimido[5,4-d][2]benzazepin-2-yl]amino]-2-methoxy-benzoic acid

> <PUBCHEM_IUPAC_TRADITIONAL_NAME>
4-[[9-chloro-7-(2-fluoro-6-methoxy-phenyl)-5H-pyrimido[5,4-d][2]benzazepin-2-yl]amino]-2-methoxy-benzoic acid

> <PUBCHEM_IUPAC_INCHI>
InChI=1S/C27H20ClFN4O4/c1-36-21-5-3-4-20(29)23(21)25-19-10-15(28)6-8-17(19)24-14(12-30-25)13-31-27(33-24)32-16-7-9-18(26(34)35)22(11-16)37-2/h3-11,13H,12H2,1-2H3,(H,34,35)(H,31,32,33)

> <PUBCHEM_IUPAC_INCHIKEY>
ZLHFILGSQDJULK-UHFFFAOYSA-N

> <PUBCHEM_XLOGP3_AA>
5

> <PUBCHEM_EXACT_MASS>
518.115711

> <PUBCHEM_MOLECULAR_FORMULA>
C27H20ClFN4O4

> <PUBCHEM_MOLECULAR_WEIGHT>
518.9

> <PUBCHEM_OPENEYE_CAN_SMILES>
COC1=C(C(=CC=C1)F)C2=NCC3=CN=C(N=C3C4=C2C=C(C=C4)Cl)NC5=CC(=C(C=C5)C(=O)O)OC

> <PUBCHEM_OPENEYE_ISO_SMILES>
COC1=C(C(=CC=C1)F)C2=NCC3=CN=C(N=C3C4=C2C=C(C=C4)Cl)NC5=CC(=C(C=C5)C(=O)O)OC

> <PUBCHEM_CACTVS_TPSA>
106

> <PUBCHEM_MONOISOTOPIC_WEIGHT>
518.115711

> <PUBCHEM_TOTAL_CHARGE>
0

> <PUBCHEM_HEAVY_ATOM_COUNT>
37

> <PUBCHEM_ATOM_DEF_STEREO_COUNT>
0

> <PUBCHEM_ATOM_UDEF_STEREO_COUNT>
0

> <PUBCHEM_BOND_DEF_STEREO_COUNT>
0

> <PUBCHEM_BOND_UDEF_STEREO_COUNT>
0

> <PUBCHEM_ISOTOPIC_ATOM_COUNT>
0

> <PUBCHEM_COMPONENT_COUNT>
1

> <PUBCHEM_CACTVS_TAUTO_COUNT>
-1

> <PUBCHEM_COORDINATE_TYPE>
1
5
255

> <PUBCHEM_BONDANNOTATIONS>
11  12  8
11  18  8
12  19  8
13  15  8
15  20  8
17  24  8
17  25  8
18  21  8
19  22  8
21  22  8
24  26  8
25  28  8
26  29  8
27  30  8
27  31  8
28  29  8
30  32  8
31  34  8
32  33  8
33  34  8
8  13  8
8  23  8
9  20  8
9  23  8

$$$$
36314
  -OEChem-02182015172D

113119  0     1  0  0  0  0  0999 V2000
    5.1483   -5.7417    0.0000 O   0  0  0  0  0  0  0  0  0  0  0  0
    6.3178   -4.1322    0.0000 O   0  0  0  0  0  0  0  0  0  0  0  0
    7.0057   -3.2798    0.0000 O   0  0  0  0  0  0  0  0  0  0  0  0
    7.4821   -1.9332    0.0000 O   0  0  0  0  0  0  0  0  0  0  0  0
    2.4962   -3.0851    0.0000 O   0  0  0  0  0  0  0  0  0  0  0  0
    3.5446   -0.3023    0.0000 O   0  0  0  0  0  0  0  0  0  0  0  0
    2.8690   -1.9332    0.0000 O   0  0  0  0  0  0  0  0  0  0  0  0
    7.5875    0.4787    0.0000 O   0  0  0  0  0  0  0  0  0  0  0  0
    7.6038   -5.2924    0.0000 O   0  0  0  0  0  0  0  0  0  0  0  0
    8.4245   -2.2863    0.0000 O   0  0  0  0  0  0  0  0  0  0  0  0
    4.7693    0.9225    0.0000 O   0  0  0  0  0  0  0  0  0  0  0  0
    6.3628    1.7035    0.0000 O   0  0  0  0  0  0  0  0  0  0  0  0
    9.0017    1.8929    0.0000 O   0  0  0  0  0  0  0  0  0  0  0  0
    7.2593    5.0495    0.0000 O   0  0  0  0  0  0  0  0  0  0  0  0
    6.8110    3.3765    0.0000 N   0  0  0  0  0  0  0  0  0  0  0  0
    5.1755   -3.2398    0.0000 C   0  0  2  0  0  0  0  0  0  0  0  0
    5.3274   -4.2703    0.0000 C   0  0  2  0  0  0  0  0  0  0  0  0
    4.2517   -2.8571    0.0000 C   0  0  1  0  0  0  0  0  0  0  0  0
    4.5059   -4.9108    0.0000 C   0  0  1  0  0  0  0  0  0  0  0  0
    6.0994   -2.8571    0.0000 C   0  0  1  0  0  0  0  0  0  0  0  0
    6.4821   -1.9332    0.0000 C   0  0  2  0  0  0  0  0  0  0  0  0
    3.4156   -3.4784    0.0000 C   0  0  2  0  0  0  0  0  0  0  0  0
    3.5436   -4.5122    0.0000 C   0  0  0  0  0  0  0  0  0  0  0  0
    6.0994   -1.0094    0.0000 C   0  0  0  0  0  0  0  0  0  0  0  0
    5.9766   -5.0959    0.0000 C   0  0  0  0  0  0  0  0  0  0  0  0
    3.8690   -1.9332    0.0000 C   0  0  0  0  0  0  0  0  0  0  0  0
    7.1552   -1.1916    0.0000 C   0  0  0  0  0  0  0  0  0  0  0  0
    5.1755   -0.6267    0.0000 C   0  0  0  0  0  0  0  0  0  0  0  0
    3.3278   -2.4744    0.0000 C   0  0  0  0  0  0  0  0  0  0  0  0
    4.2517   -1.0094    0.0000 C   0  0  1  0  0  0  0  0  0  0  0  0
    6.8804   -0.2284    0.0000 C   0  0  1  0  0  0  0  0  0  0  0  0
    5.9172    0.0464    0.0000 C   0  0  0  0  0  0  0  0  0  0  0  0
    6.3971    0.1014    0.0000 C   0  0  0  0  0  0  0  0  0  0  0  0
    7.2102   -0.7117    0.0000 C   0  0  0  0  0  0  0  0  0  0  0  0
    5.6897    1.0202    0.0000 C   0  0  0  0  0  0  0  0  0  0  0  0
    6.6259   -5.0835    0.0000 C   0  0  0  0  0  0  0  0  0  0  0  0
    8.0019   -3.1927    0.0000 C   0  0  0  0  0  0  0  0  0  0  0  0
    5.9560   -5.8260    0.0000 C   0  0  0  0  0  0  0  0  0  0  0  0
    3.8034    0.6637    0.0000 C   0  0  0  0  0  0  0  0  0  0  0  0
    7.3287    1.4446    0.0000 C   0  0  0  0  0  0  0  0  0  0  0  0
    8.5755   -4.0118    0.0000 C   0  0  0  0  0  0  0  0  0  0  0  0
    8.0358    2.1518    0.0000 C   0  0  1  0  0  0  0  0  0  0  0  0
    3.0963    1.3708    0.0000 C   0  0  0  0  0  0  0  0  0  0  0  0
    9.5717   -3.9245    0.0000 C   0  0  0  0  0  0  0  0  0  0  0  0
    8.1530   -4.9181    0.0000 C   0  0  0  0  0  0  0  0  0  0  0  0
    7.7770    3.1177    0.0000 C   0  0  2  0  0  0  0  0  0  0  0  0
   10.1453   -4.7436    0.0000 C   0  0  0  0  0  0  0  0  0  0  0  0
    8.7266   -5.7372    0.0000 C   0  0  0  0  0  0  0  0  0  0  0  0
    9.7228   -5.6500    0.0000 C   0  0  0  0  0  0  0  0  0  0  0  0
    8.4841    3.8248    0.0000 C   0  0  0  0  0  0  0  0  0  0  0  0
    9.4500    3.5660    0.0000 C   0  0  0  0  0  0  0  0  0  0  0  0
    8.2253    4.7907    0.0000 C   0  0  0  0  0  0  0  0  0  0  0  0
    6.5522    4.3424    0.0000 C   0  0  0  0  0  0  0  0  0  0  0  0
   10.1571    4.2731    0.0000 C   0  0  0  0  0  0  0  0  0  0  0  0
    8.9324    5.4978    0.0000 C   0  0  0  0  0  0  0  0  0  0  0  0
    5.5863    4.6012    0.0000 C   0  0  0  0  0  0  0  0  0  0  0  0
    9.8983    5.2390    0.0000 C   0  0  0  0  0  0  0  0  0  0  0  0
    5.3275    5.5672    0.0000 C   0  0  0  0  0  0  0  0  0  0  0  0
    4.8792    3.8941    0.0000 C   0  0  0  0  0  0  0  0  0  0  0  0
    4.3616    5.8260    0.0000 C   0  0  0  0  0  0  0  0  0  0  0  0
    3.9133    4.1530    0.0000 C   0  0  0  0  0  0  0  0  0  0  0  0
    3.6545    5.1189    0.0000 C   0  0  0  0  0  0  0  0  0  0  0  0
    5.9608   -3.5651    0.0000 H   0  0  0  0  0  0  0  0  0  0  0  0
    3.9897   -5.5860    0.0000 H   0  0  0  0  0  0  0  0  0  0  0  0
    6.6773   -2.6324    0.0000 H   0  0  0  0  0  0  0  0  0  0  0  0
    2.9201   -3.8511    0.0000 H   0  0  0  0  0  0  0  0  0  0  0  0
    2.9243   -4.4819    0.0000 H   0  0  0  0  0  0  0  0  0  0  0  0
    3.4078   -5.1171    0.0000 H   0  0  0  0  0  0  0  0  0  0  0  0
    6.3585   -5.5844    0.0000 H   0  0  0  0  0  0  0  0  0  0  0  0
    6.4645   -4.7134    0.0000 H   0  0  0  0  0  0  0  0  0  0  0  0
    7.5297   -1.6857    0.0000 H   0  0  0  0  0  0  0  0  0  0  0  0
    7.7099   -0.9145    0.0000 H   0  0  0  0  0  0  0  0  0  0  0  0
    3.5650   -1.9016    0.0000 H   0  0  0  0  0  0  0  0  0  0  0  0
    2.7550   -2.2372    0.0000 H   0  0  0  0  0  0  0  0  0  0  0  0
    3.0905   -3.0472    0.0000 H   0  0  0  0  0  0  0  0  0  0  0  0
    4.3726   -0.4013    0.0000 H   0  0  0  0  0  0  0  0  0  0  0  0
    7.4806   -0.3840    0.0000 H   0  0  0  0  0  0  0  0  0  0  0  0
    6.9959   -0.0590    0.0000 H   0  0  0  0  0  0  0  0  0  0  0  0
    6.5575    0.7003    0.0000 H   0  0  0  0  0  0  0  0  0  0  0  0
    5.7982    0.2619    0.0000 H   0  0  0  0  0  0  0  0  0  0  0  0
    7.3707   -1.3106    0.0000 H   0  0  0  0  0  0  0  0  0  0  0  0
    7.8091   -0.5513    0.0000 H   0  0  0  0  0  0  0  0  0  0  0  0
    7.0498   -0.1129    0.0000 H   0  0  0  0  0  0  0  0  0  0  0  0
    7.7921   -1.3963    0.0000 H   0  0  0  0  0  0  0  0  0  0  0  0
    2.0000   -3.4568    0.0000 H   0  0  0  0  0  0  0  0  0  0  0  0
    6.2935    1.1613    0.0000 H   0  0  0  0  0  0  0  0  0  0  0  0
    5.5487    1.6240    0.0000 H   0  0  0  0  0  0  0  0  0  0  0  0
    5.0860    0.8792    0.0000 H   0  0  0  0  0  0  0  0  0  0  0  0
    5.4957   -5.4107    0.0000 H   0  0  0  0  0  0  0  0  0  0  0  0
    5.5406   -6.2863    0.0000 H   0  0  0  0  0  0  0  0  0  0  0  0
    6.4163   -6.2413    0.0000 H   0  0  0  0  0  0  0  0  0  0  0  0
    8.1963    1.5529    0.0000 H   0  0  0  0  0  0  0  0  0  0  0  0
    3.5347    1.8092    0.0000 H   0  0  0  0  0  0  0  0  0  0  0  0
    2.6579    1.8092    0.0000 H   0  0  0  0  0  0  0  0  0  0  0  0
    2.6579    0.9324    0.0000 H   0  0  0  0  0  0  0  0  0  0  0  0
    9.8337   -3.3626    0.0000 H   0  0  0  0  0  0  0  0  0  0  0  0
    7.5353   -4.9722    0.0000 H   0  0  0  0  0  0  0  0  0  0  0  0
    7.6165    3.7166    0.0000 H   0  0  0  0  0  0  0  0  0  0  0  0
   10.7630   -4.6896    0.0000 H   0  0  0  0  0  0  0  0  0  0  0  0
    8.4646   -6.2991    0.0000 H   0  0  0  0  0  0  0  0  0  0  0  0
    9.1622    1.2941    0.0000 H   0  0  0  0  0  0  0  0  0  0  0  0
   10.0784   -6.1578    0.0000 H   0  0  0  0  0  0  0  0  0  0  0  0
    6.3726    2.9381    0.0000 H   0  0  0  0  0  0  0  0  0  0  0  0
    9.6105    2.9671    0.0000 H   0  0  0  0  0  0  0  0  0  0  0  0
    7.6264    4.9512    0.0000 H   0  0  0  0  0  0  0  0  0  0  0  0
   10.7560    4.1126    0.0000 H   0  0  0  0  0  0  0  0  0  0  0  0
    8.7719    6.0967    0.0000 H   0  0  0  0  0  0  0  0  0  0  0  0
   10.3367    5.6774    0.0000 H   0  0  0  0  0  0  0  0  0  0  0  0
    5.7659    6.0056    0.0000 H   0  0  0  0  0  0  0  0  0  0  0  0
    5.0397    3.2953    0.0000 H   0  0  0  0  0  0  0  0  0  0  0  0
    4.2011    6.4249    0.0000 H   0  0  0  0  0  0  0  0  0  0  0  0
    3.4749    3.7145    0.0000 H   0  0  0  0  0  0  0  0  0  0  0  0
    3.0556    5.2793    0.0000 H   0  0  0  0  0  0  0  0  0  0  0  0
  1 19  1  0  0  0  0
  1 25  1  0  0  0  0
 17  2  1  1  0  0  0
  2 36  1  0  0  0  0
 20  3  1  1  0  0  0
  3 37  1  0  0  0  0
 21  4  1  6  0  0  0
  4 84  1  0  0  0  0
 22  5  1  6  0  0  0
  5 85  1  0  0  0  0
 30  6  1  6  0  0  0
  6 39  1  0  0  0  0
  7 26  2  0  0  0  0
 31  8  1  1  0  0  0
  8 40  1  0  0  0  0
  9 36  2  0  0  0  0
 10 37  2  0  0  0  0
 11 39  2  0  0  0  0
 12 40  2  0  0  0  0
 42 13  1  1  0  0  0
 13101  1  0  0  0  0
 14 53  2  0  0  0  0
 46 15  1  1  0  0  0
 15 53  1  0  0  0  0
 15103  1  0  0  0  0
 16 17  1  0  0  0  0
 16 18  1  0  0  0  0
 16 20  1  0  0  0  0
 16 63  1  1  0  0  0
 17 19  1  0  0  0  0
 17 25  1  0  0  0  0
 18 22  1  0  0  0  0
 18 26  1  0  0  0  0
 18 29  1  6  0  0  0
 19 23  1  0  0  0  0
 19 64  1  1  0  0  0
 20 21  1  0  0  0  0
 20 65  1  0  0  0  0
 21 24  1  0  0  0  0
 21 27  1  0  0  0  0
 22 23  1  0  0  0  0
 22 66  1  0  0  0  0
 23 67  1  0  0  0  0
 23 68  1  0  0  0  0
 24 28  1  0  0  0  0
 24 33  1  0  0  0  0
 24 34  1  0  0  0  0
 25 69  1  0  0  0  0
 25 70  1  0  0  0  0
 26 30  1  0  0  0  0
 27 31  1  0  0  0  0
 27 71  1  0  0  0  0
 27 72  1  0  0  0  0
 28 30  1  0  0  0  0
 28 32  2  0  0  0  0
 29 73  1  0  0  0  0
 29 74  1  0  0  0  0
 29 75  1  0  0  0  0
 30 76  1  0  0  0  0
 31 32  1  0  0  0  0
 31 77  1  0  0  0  0
 32 35  1  0  0  0  0
 33 78  1  0  0  0  0
 33 79  1  0  0  0  0
 33 80  1  0  0  0  0
 34 81  1  0  0  0  0
 34 82  1  0  0  0  0
 34 83  1  0  0  0  0
 35 86  1  0  0  0  0
 35 87  1  0  0  0  0
 35 88  1  0  0  0  0
 36 38  1  0  0  0  0
 37 41  1  0  0  0  0
 38 89  1  0  0  0  0
 38 90  1  0  0  0  0
 38 91  1  0  0  0  0
 39 43  1  0  0  0  0
 40 42  1  0  0  0  0
 41 44  2  0  0  0  0
 41 45  1  0  0  0  0
 42 46  1  0  0  0  0
 42 92  1  0  0  0  0
 43 93  1  0  0  0  0
 43 94  1  0  0  0  0
 43 95  1  0  0  0  0
 44 47  1  0  0  0  0
 44 96  1  0  0  0  0
 45 48  2  0  0  0  0
 45 97  1  0  0  0  0
 46 50  1  0  0  0  0
 46 98  1  0  0  0  0
 47 49  2  0  0  0  0
 47 99  1  0  0  0  0
 48 49  1  0  0  0  0
 48100  1  0  0  0  0
 49102  1  0  0  0  0
 50 51  2  0  0  0  0
 50 52  1  0  0  0  0
 51 54  1  0  0  0  0
 51104  1  0  0  0  0
 52 55  2  0  0  0  0
 52105  1  0  0  0  0
 53 56  1  0  0  0  0
 54 57  2  0  0  0  0
 54106  1  0  0  0  0
 55 57  1  0  0  0  0
 55107  1  0  0  0  0
 56 58  2  0  0  0  0
 56 59  1  0  0  0  0
 57108  1  0  0  0  0
 58 60  1  0  0  0  0
 58109  1  0  0  0  0
 59 61  2  0  0  0  0
 59110  1  0  0  0  0
 60 62  2  0  0  0  0
 60111  1  0  0  0  0
 61 62  1  0  0  0  0
 61112  1  0  0  0  0
 62113  1  0  0  0  0
M  END
> <PUBCHEM_COMPOUND_CID>
36314

> <PUBCHEM_COMPOUND_CANONICALIZED>
1

> <PUBCHEM_CACTVS_COMPLEXITY>
1790

> <PUBCHEM_CACTVS_HBOND_ACCEPTOR>
14

> <PUBCHEM_CACTVS_HBOND_DONOR>
4

> <PUBCHEM_CACTVS_ROTATABLE_BOND>
14

> <PUBCHEM_CACTVS_SUBSKEYS>
AAADcfB+PAAAAAAAAAAAAAAAAABIAAAAAAAwYMGCAAAaIACBUAAAHgAQCAAAD3zhmAYyCILABgCIAqHSGAKCAAAkAAAIiIFIDMgLNj6AtR2GcQhn9gGbqYfa7PzPgAAAAAAAAABCAAYQADCAAAAAAAAAAA==

> <PUBCHEM_IUPAC_OPENEYE_NAME>
[(1S,2S,3R,4S,7R,9S,10S,12R,15S)-4,12-diacetoxy-15-[(2R,3S)-3-benzamido-2-hydroxy-3-phenyl-propanoyl]oxy-1,9-dihydroxy-10,14,17,17-tetramethyl-11-oxo-6-oxatetracyclo[11.3.1.03,10.04,7]heptadec-13-en-2-yl] benzoate

> <PUBCHEM_IUPAC_CAS_NAME>
benzoic acid [(1S,2S,3R,4S,7R,9S,10S,12R,15S)-4,12-diacetyloxy-15-[(2R,3S)-3-benzamido-2-hydroxy-1-oxo-3-phenylpropoxy]-1,9-dihydroxy-10,14,17,17-tetramethyl-11-oxo-6-oxatetracyclo[11.3.1.03,10.04,7]heptadec-13-en-2-yl] ester

> <PUBCHEM_IUPAC_NAME_MARKUP>
[(1<I>S</I>,2<I>S</I>,3<I>R</I>,4<I>S</I>,7<I>R</I>,9<I>S</I>,10<I>S</I>,12<I>R</I>,15<I>S</I>)-4,12-diacetyloxy-15-[(2<I>R</I>,3<I>S</I>)-3-benzamido-2-hydroxy-3-phenylpropanoyl]oxy-1,9-dihydroxy-10,14,17,17-tetramethyl-11-oxo-6-oxatetracyclo[11.3.1.0<SUP>3,10</SUP>.0<SUP>4,7</SUP>]heptadec-13-en-2-yl] benzoate

> <PUBCHEM_IUPAC_NAME>
[(1S,2S,3R,4S,7R,9S,10S,12R,15S)-4,12-diacetyloxy-15-[(2R,3S)-3-benzamido-2-hydroxy-3-phenylpropanoyl]oxy-1,9-dihydroxy-10,14,17,17-tetramethyl-11-oxo-6-oxatetracyclo[11.3.1.03,10.04,7]heptadec-13-en-2-yl] benzoate

> <PUBCHEM_IUPAC_SYSTEMATIC_NAME>
[(1S,2S,3R,4S,7R,9S,10S,12R,15S)-4,12-diacetyloxy-15-[(2R,3S)-3-benzamido-2-oxidanyl-3-phenyl-propanoyl]oxy-10,14,17,17-tetramethyl-1,9-bis(oxidanyl)-11-oxidanylidene-6-oxatetracyclo[11.3.1.03,10.04,7]heptadec-13-en-2-yl] benzoate

> <PUBCHEM_IUPAC_TRADITIONAL_NAME>
benzoic acid [(1S,2S,3R,4S,7R,9S,10S,12R,15S)-4,12-diacetoxy-15-[(2R,3S)-3-benzamido-2-hydroxy-3-phenyl-propanoyl]oxy-1,9-dihydroxy-11-keto-10,14,17,17-tetramethyl-6-oxatetracyclo[11.3.1.03,10.04,7]heptadec-13-en-2-yl] ester

> <PUBCHEM_IUPAC_INCHI>
InChI=1S/C47H51NO14/c1-25-31(60-43(56)36(52)35(28-16-10-7-11-17-28)48-41(54)29-18-12-8-13-19-29)23-47(57)40(61-42(55)30-20-14-9-15-21-30)38-45(6,32(51)22-33-46(38,24-58-33)62-27(3)50)39(53)37(59-26(2)49)34(25)44(47,4)5/h7-21,31-33,35-38,40,51-52,57H,22-24H2,1-6H3,(H,48,54)/t31-,32-,33+,35-,36+,37+,38-,40-,45+,46-,47+/m0/s1

> <PUBCHEM_IUPAC_INCHIKEY>
RCINICONZNJXQF-MZXODVADSA-N

> <PUBCHEM_XLOGP3>
2.5

> <PUBCHEM_EXACT_MASS>
853.330955

> <PUBCHEM_MOLECULAR_FORMULA>
C47H51NO14

> <PUBCHEM_MOLECULAR_WEIGHT>
853.9

> <PUBCHEM_OPENEYE_CAN_SMILES>
CC1=C2C(C(=O)C3(C(CC4C(C3C(C(C2(C)C)(CC1OC(=O)C(C(C5=CC=CC=C5)NC(=O)C6=CC=CC=C6)O)O)OC(=O)C7=CC=CC=C7)(CO4)OC(=O)C)O)C)OC(=O)C

> <PUBCHEM_OPENEYE_ISO_SMILES>
CC1=C2[C@H](C(=O)[C@@]3([C@H](C[C@@H]4[C@]([C@H]3[C@@H]([C@@](C2(C)C)(C[C@@H]1OC(=O)[C@@H]([C@H](C5=CC=CC=C5)NC(=O)C6=CC=CC=C6)O)O)OC(=O)C7=CC=CC=C7)(CO4)OC(=O)C)O)C)OC(=O)C

> <PUBCHEM_CACTVS_TPSA>
221

> <PUBCHEM_MONOISOTOPIC_WEIGHT>
853.330955

> <PUBCHEM_TOTAL_CHARGE>
0

> <PUBCHEM_HEAVY_ATOM_COUNT>
62

> <PUBCHEM_ATOM_DEF_STEREO_COUNT>
11

> <PUBCHEM_ATOM_UDEF_STEREO_COUNT>
0

> <PUBCHEM_BOND_DEF_STEREO_COUNT>
0

> <PUBCHEM_BOND_UDEF_STEREO_COUNT>
0

> <PUBCHEM_ISOTOPIC_ATOM_COUNT>
0

> <PUBCHEM_COMPONENT_COUNT>
1

> <PUBCHEM_CACTVS_TAUTO_COUNT>
-1

> <PUBCHEM_COORDINATE_TYPE>
1
5
255

> <PUBCHEM_BONDANNOTATIONS>
42  13  5
46  15  5
16  63  5
18  29  6
19  64  5
17  2  5
20  3  5
21  4  6
41  44  8
41  45  8
44  47  8
45  48  8
47  49  8
48  49  8
22  5  6
50  51  8
50  52  8
51  54  8
52  55  8
54  57  8
55  57  8
56  58  8
56  59  8
58  60  8
59  61  8
30  6  6
60  62  8
61  62  8
31  8  5

$$$$
51001932
  -OEChem-02182015172D

 62 66  0     0  0  0  0  0  0999 V2000
   10.1885    3.3782    0.0000 O   0  0  0  0  0  0  0  0  0  0  0  0
    3.1410    0.8771    0.0000 O   0  0  0  0  0  0  0  0  0  0  0  0
   11.5895    1.6214    0.0000 N   0  0  0  0  0  0  0  0  0  0  0  0
    5.2332    2.4966    0.0000 N   0  0  0  0  0  0  0  0  0  0  0  0
   13.2206   -1.0534    0.0000 N   0  0  0  0  0  0  0  0  0  0  0  0
   10.8245    0.2028    0.0000 N   0  0  0  0  0  0  0  0  0  0  0  0
    5.5316    3.4510    0.0000 N   0  0  0  0  0  0  0  0  0  0  0  0
   11.7628   -1.7554    0.0000 N   0  0  0  0  0  0  0  0  0  0  0  0
   13.3548   -2.0443    0.0000 N   0  0  0  0  0  0  0  0  0  0  0  0
    2.5875    2.5183    0.0000 N   0  0  0  0  0  0  0  0  0  0  0  0
    4.2856    2.1770    0.0000 C   0  0  0  0  0  0  0  0  0  0  0  0
   10.6885    1.1876    0.0000 C   0  0  0  0  0  0  0  0  0  0  0  0
   11.8120    2.5964    0.0000 C   0  0  0  0  0  0  0  0  0  0  0  0
    9.7876    1.6214    0.0000 C   0  0  0  0  0  0  0  0  0  0  0  0
    9.5650    2.5964    0.0000 C   0  0  0  0  0  0  0  0  0  0  0  0
   11.8028    0.0262    0.0000 C   0  0  0  0  0  0  0  0  0  0  0  0
   11.1885    3.3782    0.0000 C   0  0  0  0  0  0  0  0  0  0  0  0
   12.2746    0.9011    0.0000 C   0  0  0  0  0  0  0  0  0  0  0  0
    7.8055    2.2161    0.0000 C   0  0  0  0  0  0  0  0  0  0  0  0
    6.8511    2.5146    0.0000 C   0  0  0  0  0  0  0  0  0  0  0  0
   12.2367   -0.8748    0.0000 C   0  0  0  0  0  0  0  0  0  0  0  0
   13.9434   -0.3623    0.0000 C   0  0  0  0  0  0  0  0  0  0  0  0
    8.5745    2.9187    0.0000 C   0  0  0  0  0  0  0  0  0  0  0  0
    6.0486    1.9178    0.0000 C   0  0  0  0  0  0  0  0  0  0  0  0
    9.0350    0.9013    0.0000 C   0  0  0  0  0  0  0  0  0  0  0  0
    3.9660    3.1246    0.0000 C   0  0  0  0  0  0  0  0  0  0  0  0
    4.6052    1.2295    0.0000 C   0  0  0  0  0  0  0  0  0  0  0  0
    8.0373    1.2006    0.0000 C   0  0  0  0  0  0  0  0  0  0  0  0
    3.3380    1.8575    0.0000 C   0  0  0  0  0  0  0  0  0  0  0  0
    6.5315    3.4621    0.0000 C   0  0  0  0  0  0  0  0  0  0  0  0
   14.9033   -0.6427    0.0000 C   0  0  0  0  0  0  0  0  0  0  0  0
   13.7063    0.6092    0.0000 C   0  0  0  0  0  0  0  0  0  0  0  0
   12.4538   -2.4782    0.0000 C   0  0  0  0  0  0  0  0  0  0  0  0
   12.2753   -3.4621    0.0000 C   0  0  0  0  0  0  0  0  0  0  0  0
   12.3706    2.3274    0.0000 H   0  0  0  0  0  0  0  0  0  0  0  0
   12.1986    3.0811    0.0000 H   0  0  0  0  0  0  0  0  0  0  0  0
   11.7471    3.6472    0.0000 H   0  0  0  0  0  0  0  0  0  0  0  0
   11.0506    3.9826    0.0000 H   0  0  0  0  0  0  0  0  0  0  0  0
   12.8891    0.9833    0.0000 H   0  0  0  0  0  0  0  0  0  0  0  0
   14.0904   -0.9646    0.0000 H   0  0  0  0  0  0  0  0  0  0  0  0
    8.4436    3.5247    0.0000 H   0  0  0  0  0  0  0  0  0  0  0  0
    6.0555    1.2979    0.0000 H   0  0  0  0  0  0  0  0  0  0  0  0
    9.1799    0.2984    0.0000 H   0  0  0  0  0  0  0  0  0  0  0  0
    4.5535    3.3227    0.0000 H   0  0  0  0  0  0  0  0  0  0  0  0
    3.7679    3.7121    0.0000 H   0  0  0  0  0  0  0  0  0  0  0  0
    3.3785    2.9265    0.0000 H   0  0  0  0  0  0  0  0  0  0  0  0
    4.0177    1.0313    0.0000 H   0  0  0  0  0  0  0  0  0  0  0  0
    4.8033    0.6420    0.0000 H   0  0  0  0  0  0  0  0  0  0  0  0
    5.1926    1.4276    0.0000 H   0  0  0  0  0  0  0  0  0  0  0  0
    7.5844    0.7771    0.0000 H   0  0  0  0  0  0  0  0  0  0  0  0
    6.8904    3.9677    0.0000 H   0  0  0  0  0  0  0  0  0  0  0  0
   14.7294   -1.2378    0.0000 H   0  0  0  0  0  0  0  0  0  0  0  0
   15.4984   -0.8166    0.0000 H   0  0  0  0  0  0  0  0  0  0  0  0
   15.0771   -0.0476    0.0000 H   0  0  0  0  0  0  0  0  0  0  0  0
   14.3086    0.7562    0.0000 H   0  0  0  0  0  0  0  0  0  0  0  0
   13.5593    1.2115    0.0000 H   0  0  0  0  0  0  0  0  0  0  0  0
   13.1040    0.4622    0.0000 H   0  0  0  0  0  0  0  0  0  0  0  0
    2.0000    2.3202    0.0000 H   0  0  0  0  0  0  0  0  0  0  0  0
    2.7096    3.1262    0.0000 H   0  0  0  0  0  0  0  0  0  0  0  0
   11.6653   -3.3514    0.0000 H   0  0  0  0  0  0  0  0  0  0  0  0
   12.1646   -4.0722    0.0000 H   0  0  0  0  0  0  0  0  0  0  0  0
   12.8853   -3.5728    0.0000 H   0  0  0  0  0  0  0  0  0  0  0  0
  1 15  1  0  0  0  0
  1 17  1  0  0  0  0
  2 29  2  0  0  0  0
  3 12  1  0  0  0  0
  3 13  1  0  0  0  0
  3 18  1  0  0  0  0
  4  7  1  0  0  0  0
  4 11  1  0  0  0  0
  4 24  1  0  0  0  0
  5  9  1  0  0  0  0
  5 21  1  0  0  0  0
  5 22  1  0  0  0  0
  6 12  2  0  0  0  0
  6 16  1  0  0  0  0
  7 30  2  0  0  0  0
  8 21  2  0  0  0  0
  8 33  1  0  0  0  0
  9 33  2  0  0  0  0
 10 29  1  0  0  0  0
 10 58  1  0  0  0  0
 10 59  1  0  0  0  0
 11 26  1  0  0  0  0
 11 27  1  0  0  0  0
 11 29  1  0  0  0  0
 12 14  1  0  0  0  0
 13 17  1  0  0  0  0
 13 35  1  0  0  0  0
 13 36  1  0  0  0  0
 14 15  2  0  0  0  0
 14 25  1  0  0  0  0
 15 23  1  0  0  0  0
 16 18  2  0  0  0  0
 16 21  1  0  0  0  0
 17 37  1  0  0  0  0
 17 38  1  0  0  0  0
 18 39  1  0  0  0  0
 19 20  1  0  0  0  0
 19 23  2  0  0  0  0
 19 28  1  0  0  0  0
 20 24  2  0  0  0  0
 20 30  1  0  0  0  0
 22 31  1  0  0  0  0
 22 32  1  0  0  0  0
 22 40  1  0  0  0  0
 23 41  1  0  0  0  0
 24 42  1  0  0  0  0
 25 28  2  0  0  0  0
 25 43  1  0  0  0  0
 26 44  1  0  0  0  0
 26 45  1  0  0  0  0
 26 46  1  0  0  0  0
 27 47  1  0  0  0  0
 27 48  1  0  0  0  0
 27 49  1  0  0  0  0
 28 50  1  0  0  0  0
 30 51  1  0  0  0  0
 31 52  1  0  0  0  0
 31 53  1  0  0  0  0
 31 54  1  0  0  0  0
 32 55  1  0  0  0  0
 32 56  1  0  0  0  0
 32 57  1  0  0  0  0
 33 34  1  0  0  0  0
 34 60  1  0  0  0  0
 34 61  1  0  0  0  0
 34 62  1  0  0  0  0
M  END
> <PUBCHEM_COMPOUND_CID>
51001932

> <PUBCHEM_COMPOUND_CANONICALIZED>
1

> <PUBCHEM_CACTVS_COMPLEXITY>
751

> <PUBCHEM_CACTVS_HBOND_ACCEPTOR>
6

> <PUBCHEM_CACTVS_HBOND_DONOR>
1

> <PUBCHEM_CACTVS_ROTATABLE_BOND>
5

> <PUBCHEM_CACTVS_SUBSKEYS>
AAADceB78AAAAAAAAAAAAAAAAAAAAWLFgAAwAAAABYAAAACx/AAAHgAYAAAADKzhnwY/lpdMFACqAzd3dACSjC8xsqAd2CG+fJiObqLE+XuXvCjuyBPY6CeQ0PIOwAABAAAIAACAAAIAABAAAAAAAAAAAA==

> <PUBCHEM_IUPAC_OPENEYE_NAME>
2-[4-[2-(2-isopropyl-5-methyl-1,2,4-triazol-3-yl)-5,6-dihydroimidazo[1,2-d][1,4]benzoxazepin-9-yl]pyrazol-1-yl]-2-methyl-propanamide

> <PUBCHEM_IUPAC_CAS_NAME>
2-methyl-2-[4-[2-(5-methyl-2-propan-2-yl-1,2,4-triazol-3-yl)-5,6-dihydroimidazo[1,2-d][1,4]benzoxazepin-9-yl]-1-pyrazolyl]propanamide

> <PUBCHEM_IUPAC_NAME_MARKUP>
2-methyl-2-[4-[2-(5-methyl-2-propan-2-yl-1,2,4-triazol-3-yl)-5,6-dihydroimidazo[1,2-d][1,4]benzoxazepin-9-yl]pyrazol-1-yl]propanamide

> <PUBCHEM_IUPAC_NAME>
2-methyl-2-[4-[2-(5-methyl-2-propan-2-yl-1,2,4-triazol-3-yl)-5,6-dihydroimidazo[1,2-d][1,4]benzoxazepin-9-yl]pyrazol-1-yl]propanamide

> <PUBCHEM_IUPAC_SYSTEMATIC_NAME>
2-methyl-2-[4-[2-(5-methyl-2-propan-2-yl-1,2,4-triazol-3-yl)-5,6-dihydroimidazo[1,2-d][1,4]benzoxazepin-9-yl]pyrazol-1-yl]propanamide

> <PUBCHEM_IUPAC_TRADITIONAL_NAME>
2-[4-[2-(2-isopropyl-5-methyl-1,2,4-triazol-3-yl)-5,6-dihydroimidazo[1,2-d][1,4]benzoxazepin-9-yl]pyrazol-1-yl]-2-methyl-propionamide

> <PUBCHEM_IUPAC_INCHI>
InChI=1S/C24H28N8O2/c1-14(2)32-22(27-15(3)29-32)19-13-30-8-9-34-20-10-16(6-7-18(20)21(30)28-19)17-11-26-31(12-17)24(4,5)23(25)33/h6-7,10-14H,8-9H2,1-5H3,(H2,25,33)

> <PUBCHEM_IUPAC_INCHIKEY>
BEUQXVWXFDOSAQ-UHFFFAOYSA-N

> <PUBCHEM_XLOGP3_AA>
1.8

> <PUBCHEM_EXACT_MASS>
460.233522

> <PUBCHEM_MOLECULAR_FORMULA>
C24H28N8O2

> <PUBCHEM_MOLECULAR_WEIGHT>
460.5

> <PUBCHEM_OPENEYE_CAN_SMILES>
CC1=NN(C(=N1)C2=CN3CCOC4=C(C3=N2)C=CC(=C4)C5=CN(N=C5)C(C)(C)C(=O)N)C(C)C

> <PUBCHEM_OPENEYE_ISO_SMILES>
CC1=NN(C(=N1)C2=CN3CCOC4=C(C3=N2)C=CC(=C4)C5=CN(N=C5)C(C)(C)C(=O)N)C(C)C

> <PUBCHEM_CACTVS_TPSA>
119

> <PUBCHEM_MONOISOTOPIC_WEIGHT>
460.233522

> <PUBCHEM_TOTAL_CHARGE>
0

> <PUBCHEM_HEAVY_ATOM_COUNT>
34

> <PUBCHEM_ATOM_DEF_STEREO_COUNT>
0

> <PUBCHEM_ATOM_UDEF_STEREO_COUNT>
0

> <PUBCHEM_BOND_DEF_STEREO_COUNT>
0

> <PUBCHEM_BOND_UDEF_STEREO_COUNT>
0

> <PUBCHEM_ISOTOPIC_ATOM_COUNT>
0

> <PUBCHEM_COMPONENT_COUNT>
1

> <PUBCHEM_CACTVS_TAUTO_COUNT>
-1

> <PUBCHEM_COORDINATE_TYPE>
1
5
255

> <PUBCHEM_BONDANNOTATIONS>
14  15  8
14  25  8
15  23  8
16  18  8
19  23  8
19  28  8
20  24  8
20  30  8
25  28  8
3  12  8
3  18  8
4  24  8
4  7  8
5  21  8
5  9  8
6  12  8
6  16  8
7  30  8
8  21  8
8  33  8
9  33  8

$$$$
176158
  -OEChem-02182015172D

 37 40  0     0  0  0  0  0  0999 V2000
    5.0030    3.0142    0.0000 Cl  0  0  0  0  0  0  0  0  0  0  0  0
    2.0000    1.2874    0.0000 Cl  0  0  0  0  0  0  0  0  0  0  0  0
    8.3460    0.1886    0.0000 O   0  0  0  0  0  0  0  0  0  0  0  0
    6.2818    3.0401    0.0000 O   0  0  0  0  0  0  0  0  0  0  0  0
    6.2757   -2.0895    0.0000 N   0  0  0  0  0  0  0  0  0  0  0  0
    7.5397    1.7778    0.0000 N   0  0  0  0  0  0  0  0  0  0  0  0
    6.2757   -0.4801    0.0000 C   0  0  0  0  0  0  0  0  0  0  0  0
    5.3295   -0.7848    0.0000 C   0  0  0  0  0  0  0  0  0  0  0  0
    6.5864    0.4704    0.0000 C   0  0  0  0  0  0  0  0  0  0  0  0
    5.3295   -1.7848    0.0000 C   0  0  0  0  0  0  0  0  0  0  0  0
    6.8593   -1.2848    0.0000 C   0  0  0  0  0  0  0  0  0  0  0  0
    6.0000    1.2805    0.0000 C   0  0  0  0  0  0  0  0  0  0  0  0
    7.5380    0.7778    0.0000 C   0  0  0  0  0  0  0  0  0  0  0  0
    4.4635   -0.2848    0.0000 C   0  0  0  0  0  0  0  0  0  0  0  0
    5.0000    1.2822    0.0000 C   0  0  0  0  0  0  0  0  0  0  0  0
    4.4635   -2.2848    0.0000 C   0  0  0  0  0  0  0  0  0  0  0  0
    6.5892    2.0885    0.0000 C   0  0  0  0  0  0  0  0  0  0  0  0
    6.5864   -3.0401    0.0000 C   0  0  0  0  0  0  0  0  0  0  0  0
    3.5974   -0.7848    0.0000 C   0  0  0  0  0  0  0  0  0  0  0  0
    3.5974   -1.7848    0.0000 C   0  0  0  0  0  0  0  0  0  0  0  0
    4.5015    2.1491    0.0000 C   0  0  0  0  0  0  0  0  0  0  0  0
    4.4985    0.4170    0.0000 C   0  0  0  0  0  0  0  0  0  0  0  0
    3.5015    2.1508    0.0000 C   0  0  0  0  0  0  0  0  0  0  0  0
    3.4985    0.4188    0.0000 C   0  0  0  0  0  0  0  0  0  0  0  0
    3.0000    1.2857    0.0000 C   0  0  0  0  0  0  0  0  0  0  0  0
    7.4793   -1.2848    0.0000 H   0  0  0  0  0  0  0  0  0  0  0  0
    4.4635    0.3352    0.0000 H   0  0  0  0  0  0  0  0  0  0  0  0
    4.4635   -2.9048    0.0000 H   0  0  0  0  0  0  0  0  0  0  0  0
    5.9971   -3.2327    0.0000 H   0  0  0  0  0  0  0  0  0  0  0  0
    6.7790   -3.6294    0.0000 H   0  0  0  0  0  0  0  0  0  0  0  0
    7.1757   -2.8474    0.0000 H   0  0  0  0  0  0  0  0  0  0  0  0
    8.0419    2.1414    0.0000 H   0  0  0  0  0  0  0  0  0  0  0  0
    3.0605   -0.4748    0.0000 H   0  0  0  0  0  0  0  0  0  0  0  0
    3.0605   -2.0948    0.0000 H   0  0  0  0  0  0  0  0  0  0  0  0
    4.8076   -0.1204    0.0000 H   0  0  0  0  0  0  0  0  0  0  0  0
    3.1924    2.6883    0.0000 H   0  0  0  0  0  0  0  0  0  0  0  0
    3.1876   -0.1176    0.0000 H   0  0  0  0  0  0  0  0  0  0  0  0
  1 21  1  0  0  0  0
  2 25  1  0  0  0  0
  3 13  2  0  0  0  0
  4 17  2  0  0  0  0
  5 10  1  0  0  0  0
  5 11  1  0  0  0  0
  5 18  1  0  0  0  0
  6 13  1  0  0  0  0
  6 17  1  0  0  0  0
  6 32  1  0  0  0  0
  7  8  1  0  0  0  0
  7  9  1  0  0  0  0
  7 11  2  0  0  0  0
  8 10  1  0  0  0  0
  8 14  2  0  0  0  0
  9 12  2  0  0  0  0
  9 13  1  0  0  0  0
 10 16  2  0  0  0  0
 11 26  1  0  0  0  0
 12 15  1  0  0  0  0
 12 17  1  0  0  0  0
 14 19  1  0  0  0  0
 14 27  1  0  0  0  0
 15 21  2  0  0  0  0
 15 22  1  0  0  0  0
 16 20  1  0  0  0  0
 16 28  1  0  0  0  0
 18 29  1  0  0  0  0
 18 30  1  0  0  0  0
 18 31  1  0  0  0  0
 19 20  2  0  0  0  0
 19 33  1  0  0  0  0
 20 34  1  0  0  0  0
 21 23  1  0  0  0  0
 22 24  2  0  0  0  0
 22 35  1  0  0  0  0
 23 25  2  0  0  0  0
 23 36  1  0  0  0  0
 24 25  1  0  0  0  0
 24 37  1  0  0  0  0
M  END
> <PUBCHEM_COMPOUND_CID>
176158

> <PUBCHEM_COMPOUND_CANONICALIZED>
1

> <PUBCHEM_CACTVS_COMPLEXITY>
621

> <PUBCHEM_CACTVS_HBOND_ACCEPTOR>
2

> <PUBCHEM_CACTVS_HBOND_DONOR>
1

> <PUBCHEM_CACTVS_ROTATABLE_BOND>
2

> <PUBCHEM_CACTVS_SUBSKEYS>
AAADccB7MAAGAAAAAAAAAAAAAAAAAWIAAAAwYAAAAAAAAFgB9AAAHgIQAAAADArBniQ+wPPMEACoAzV3VACCgCAxByAI2CE4ZtgIIPLBl5GEIAhghCDIyQccicCehAAAAACDAAAIAAAAAQYAAAAAAAAAAA==

> <PUBCHEM_IUPAC_OPENEYE_NAME>
3-(2,4-dichlorophenyl)-4-(1-methylindol-3-yl)pyrrole-2,5-dione

> <PUBCHEM_IUPAC_CAS_NAME>
3-(2,4-dichlorophenyl)-4-(1-methyl-3-indolyl)pyrrole-2,5-dione

> <PUBCHEM_IUPAC_NAME_MARKUP>
3-(2,4-dichlorophenyl)-4-(1-methylindol-3-yl)pyrrole-2,5-dione

> <PUBCHEM_IUPAC_NAME>
3-(2,4-dichlorophenyl)-4-(1-methylindol-3-yl)pyrrole-2,5-dione

> <PUBCHEM_IUPAC_SYSTEMATIC_NAME>
3-(2,4-dichlorophenyl)-4-(1-methylindol-3-yl)pyrrole-2,5-dione

> <PUBCHEM_IUPAC_TRADITIONAL_NAME>
3-(2,4-dichlorophenyl)-4-(1-methylindol-3-yl)-3-pyrroline-2,5-quinone

> <PUBCHEM_IUPAC_INCHI>
InChI=1S/C19H12Cl2N2O2/c1-23-9-13(11-4-2-3-5-15(11)23)17-16(18(24)22-19(17)25)12-7-6-10(20)8-14(12)21/h2-9H,1H3,(H,22,24,25)

> <PUBCHEM_IUPAC_INCHIKEY>
JCSGFHVFHSKIJH-UHFFFAOYSA-N

> <PUBCHEM_XLOGP3_AA>
3.9

> <PUBCHEM_EXACT_MASS>
370.027583

> <PUBCHEM_MOLECULAR_FORMULA>
C19H12Cl2N2O2

> <PUBCHEM_MOLECULAR_WEIGHT>
371.2

> <PUBCHEM_OPENEYE_CAN_SMILES>
CN1C=C(C2=CC=CC=C21)C3=C(C(=O)NC3=O)C4=C(C=C(C=C4)Cl)Cl

> <PUBCHEM_OPENEYE_ISO_SMILES>
CN1C=C(C2=CC=CC=C21)C3=C(C(=O)NC3=O)C4=C(C=C(C=C4)Cl)Cl

> <PUBCHEM_CACTVS_TPSA>
51.1

> <PUBCHEM_MONOISOTOPIC_WEIGHT>
370.027583

> <PUBCHEM_TOTAL_CHARGE>
0

> <PUBCHEM_HEAVY_ATOM_COUNT>
25

> <PUBCHEM_ATOM_DEF_STEREO_COUNT>
0

> <PUBCHEM_ATOM_UDEF_STEREO_COUNT>
0

> <PUBCHEM_BOND_DEF_STEREO_COUNT>
0

> <PUBCHEM_BOND_UDEF_STEREO_COUNT>
0

> <PUBCHEM_ISOTOPIC_ATOM_COUNT>
0

> <PUBCHEM_COMPONENT_COUNT>
1

> <PUBCHEM_CACTVS_TAUTO_COUNT>
-1

> <PUBCHEM_COORDINATE_TYPE>
1
5
255

> <PUBCHEM_BONDANNOTATIONS>
10  16  8
14  19  8
15  21  8
15  22  8
16  20  8
19  20  8
21  23  8
22  24  8
23  25  8
24  25  8
5  10  8
5  11  8
7  11  8
7  8  8
8  10  8
8  14  8

$$$$
5278396
  -OEChem-02182015172D

 44 48  0     0  0  0  0  0  0999 V2000
    4.6660   -1.2649    0.0000 S   0  0  0  0  0  0  0  0  0  0  0  0
    4.6660   -3.2649    0.0000 S   0  0  0  0  0  0  0  0  0  0  0  0
    9.8436    2.8096    0.0000 O   0  0  0  0  0  0  0  0  0  0  0  0
    7.2746    0.2797    0.0000 O   0  0  0  0  0  0  0  0  0  0  0  0
    4.6594    1.7496    0.0000 O   0  0  0  0  0  0  0  0  0  0  0  0
    8.1232    1.7896    0.0000 N   0  0  0  0  0  0  0  0  0  0  0  0
    8.1117    2.7896    0.0000 C   0  0  0  0  0  0  0  0  0  0  0  0
    8.9950    1.2997    0.0000 C   0  0  0  0  0  0  0  0  0  0  0  0
    8.9719    3.2995    0.0000 C   0  0  0  0  0  0  0  0  0  0  0  0
    9.8552    1.8096    0.0000 C   0  0  0  0  0  0  0  0  0  0  0  0
    7.2631    1.2796    0.0000 C   0  0  0  0  0  0  0  0  0  0  0  0
    6.4144   -0.2303    0.0000 C   0  0  0  0  0  0  0  0  0  0  0  0
    6.4260   -1.2302    0.0000 C   0  0  0  0  0  0  0  0  0  0  0  0
    6.3913    1.7696    0.0000 C   0  0  0  0  0  0  0  0  0  0  0  0
    5.5321   -1.7649    0.0000 C   0  0  0  0  0  0  0  0  0  0  0  0
    5.5427    0.2597    0.0000 C   0  0  0  0  0  0  0  0  0  0  0  0
    5.5321   -2.7649    0.0000 C   0  0  0  0  0  0  0  0  0  0  0  0
    5.5311    1.2596    0.0000 C   0  0  0  0  0  0  0  0  0  0  0  0
    7.3321   -1.7441    0.0000 C   0  0  0  0  0  0  0  0  0  0  0  0
    3.8000   -1.7649    0.0000 C   0  0  0  0  0  0  0  0  0  0  0  0
    3.8000   -2.7649    0.0000 C   0  0  0  0  0  0  0  0  0  0  0  0
    6.4260   -3.2995    0.0000 C   0  0  0  0  0  0  0  0  0  0  0  0
    7.3321   -2.7857    0.0000 C   0  0  0  0  0  0  0  0  0  0  0  0
    2.9061   -1.2302    0.0000 C   0  0  0  0  0  0  0  0  0  0  0  0
    2.9061   -3.2995    0.0000 C   0  0  0  0  0  0  0  0  0  0  0  0
    2.0000   -1.7441    0.0000 C   0  0  0  0  0  0  0  0  0  0  0  0
    2.0000   -2.7857    0.0000 C   0  0  0  0  0  0  0  0  0  0  0  0
    7.8929    3.3697    0.0000 H   0  0  0  0  0  0  0  0  0  0  0  0
    7.5024    2.6748    0.0000 H   0  0  0  0  0  0  0  0  0  0  0  0
    8.6020    0.8201    0.0000 H   0  0  0  0  0  0  0  0  0  0  0  0
    9.3990    0.8294    0.0000 H   0  0  0  0  0  0  0  0  0  0  0  0
    9.3649    3.7791    0.0000 H   0  0  0  0  0  0  0  0  0  0  0  0
    8.5679    3.7698    0.0000 H   0  0  0  0  0  0  0  0  0  0  0  0
   10.0740    1.2295    0.0000 H   0  0  0  0  0  0  0  0  0  0  0  0
   10.4645    1.9244    0.0000 H   0  0  0  0  0  0  0  0  0  0  0  0
    6.3841    2.3896    0.0000 H   0  0  0  0  0  0  0  0  0  0  0  0
    5.0094   -0.0565    0.0000 H   0  0  0  0  0  0  0  0  0  0  0  0
    7.8678   -1.4320    0.0000 H   0  0  0  0  0  0  0  0  0  0  0  0
    6.4188   -3.9195    0.0000 H   0  0  0  0  0  0  0  0  0  0  0  0
    7.8678   -3.0978    0.0000 H   0  0  0  0  0  0  0  0  0  0  0  0
    2.9132   -0.6103    0.0000 H   0  0  0  0  0  0  0  0  0  0  0  0
    2.9132   -3.9195    0.0000 H   0  0  0  0  0  0  0  0  0  0  0  0
    1.4643   -1.4320    0.0000 H   0  0  0  0  0  0  0  0  0  0  0  0
    1.4643   -3.0978    0.0000 H   0  0  0  0  0  0  0  0  0  0  0  0
  1 15  1  0  0  0  0
  1 20  1  0  0  0  0
  2 17  1  0  0  0  0
  2 21  1  0  0  0  0
  3  9  1  0  0  0  0
  3 10  1  0  0  0  0
  4 11  1  0  0  0  0
  4 12  1  0  0  0  0
  5 18  2  0  0  0  0
  6  7  1  0  0  0  0
  6  8  1  0  0  0  0
  6 11  1  0  0  0  0
  7  9  1  0  0  0  0
  7 28  1  0  0  0  0
  7 29  1  0  0  0  0
  8 10  1  0  0  0  0
  8 30  1  0  0  0  0
  8 31  1  0  0  0  0
  9 32  1  0  0  0  0
  9 33  1  0  0  0  0
 10 34  1  0  0  0  0
 10 35  1  0  0  0  0
 11 14  2  0  0  0  0
 12 13  1  0  0  0  0
 12 16  2  0  0  0  0
 13 15  2  0  0  0  0
 13 19  1  0  0  0  0
 14 18  1  0  0  0  0
 14 36  1  0  0  0  0
 15 17  1  0  0  0  0
 16 18  1  0  0  0  0
 16 37  1  0  0  0  0
 17 22  2  0  0  0  0
 19 23  2  0  0  0  0
 19 38  1  0  0  0  0
 20 21  1  0  0  0  0
 20 24  2  0  0  0  0
 21 25  2  0  0  0  0
 22 23  1  0  0  0  0
 22 39  1  0  0  0  0
 23 40  1  0  0  0  0
 24 26  1  0  0  0  0
 24 41  1  0  0  0  0
 25 27  1  0  0  0  0
 25 42  1  0  0  0  0
 26 27  2  0  0  0  0
 26 43  1  0  0  0  0
 27 44  1  0  0  0  0
M  END
> <PUBCHEM_COMPOUND_CID>
5278396

> <PUBCHEM_COMPOUND_CANONICALIZED>
1

> <PUBCHEM_CACTVS_COMPLEXITY>
643

> <PUBCHEM_CACTVS_HBOND_ACCEPTOR>
6

> <PUBCHEM_CACTVS_HBOND_DONOR>
0

> <PUBCHEM_CACTVS_ROTATABLE_BOND>
2

> <PUBCHEM_CACTVS_SUBSKEYS>
AAADceB6MABgAAAAAAAAAAAAAAAAAAAAAAA8aIECAAAAAACRQAAAHgQAAAAADATh2AYwAYMABAiIAqBSQAACCAAgKhAIiBgICMgKJiKgMRiLMAAkwAG4qUeAwCAOAAAAgAAEAgAAAAEAAAgEAAAAAAAAAA==

> <PUBCHEM_IUPAC_OPENEYE_NAME>
2-morpholino-6-thianthren-1-yl-pyran-4-one

> <PUBCHEM_IUPAC_CAS_NAME>
2-(4-morpholinyl)-6-(1-thianthrenyl)-4-pyranone

> <PUBCHEM_IUPAC_NAME_MARKUP>
2-morpholin-4-yl-6-thianthren-1-ylpyran-4-one

> <PUBCHEM_IUPAC_NAME>
2-morpholin-4-yl-6-thianthren-1-ylpyran-4-one

> <PUBCHEM_IUPAC_SYSTEMATIC_NAME>
2-morpholin-4-yl-6-thianthren-1-yl-pyran-4-one

> <PUBCHEM_IUPAC_TRADITIONAL_NAME>
2-morpholino-6-thianthren-1-yl-pyran-4-one

> <PUBCHEM_IUPAC_INCHI>
InChI=1S/C21H17NO3S2/c23-14-12-16(25-20(13-14)22-8-10-24-11-9-22)15-4-3-7-19-21(15)27-18-6-2-1-5-17(18)26-19/h1-7,12-13H,8-11H2

> <PUBCHEM_IUPAC_INCHIKEY>
XRKYMMUGXMWDAO-UHFFFAOYSA-N

> <PUBCHEM_XLOGP3_AA>
3.9

> <PUBCHEM_EXACT_MASS>
395.064986

> <PUBCHEM_MOLECULAR_FORMULA>
C21H17NO3S2

> <PUBCHEM_MOLECULAR_WEIGHT>
395.5

> <PUBCHEM_OPENEYE_CAN_SMILES>
C1COCCN1C2=CC(=O)C=C(O2)C3=C4C(=CC=C3)SC5=CC=CC=C5S4

> <PUBCHEM_OPENEYE_ISO_SMILES>
C1COCCN1C2=CC(=O)C=C(O2)C3=C4C(=CC=C3)SC5=CC=CC=C5S4

> <PUBCHEM_CACTVS_TPSA>
89.4

> <PUBCHEM_MONOISOTOPIC_WEIGHT>
395.064986

> <PUBCHEM_TOTAL_CHARGE>
0

> <PUBCHEM_HEAVY_ATOM_COUNT>
27

> <PUBCHEM_ATOM_DEF_STEREO_COUNT>
0

> <PUBCHEM_ATOM_UDEF_STEREO_COUNT>
0

> <PUBCHEM_BOND_DEF_STEREO_COUNT>
0

> <PUBCHEM_BOND_UDEF_STEREO_COUNT>
0

> <PUBCHEM_ISOTOPIC_ATOM_COUNT>
0

> <PUBCHEM_COMPONENT_COUNT>
1

> <PUBCHEM_CACTVS_TAUTO_COUNT>
-1

> <PUBCHEM_COORDINATE_TYPE>
1
5
255

> <PUBCHEM_BONDANNOTATIONS>
11  14  8
12  16  8
13  15  8
13  19  8
14  18  8
15  17  8
16  18  8
17  22  8
19  23  8
20  21  8
20  24  8
21  25  8
22  23  8
24  26  8
25  27  8
26  27  8
4  11  8
4  12  8

$$$$
156422
  -OEChem-02182015172D

 76 80  0     0  0  0  0  0  0999 V2000
    3.8397    6.0855    0.0000 O   0  0  0  0  0  0  0  0  0  0  0  0
    7.3038    3.0855    0.0000 O   0  0  0  0  0  0  0  0  0  0  0  0
    5.5717   -0.9145    0.0000 O   0  0  0  0  0  0  0  0  0  0  0  0
    5.5717    5.0855    0.0000 N   0  0  0  0  0  0  0  0  0  0  0  0
    5.4672   -3.9090    0.0000 N   0  0  0  0  0  0  0  0  0  0  0  0
    4.4890   -4.1169    0.0000 N   0  0  0  0  0  0  0  0  0  0  0  0
    6.4378   -2.4145    0.0000 N   0  0  0  0  0  0  0  0  0  0  0  0
    7.3038   -0.9145    0.0000 N   0  0  0  0  0  0  0  0  0  0  0  0
    2.9945   -3.1464    0.0000 C   0  0  0  0  0  0  0  0  0  0  0  0
    5.5717    6.0855    0.0000 C   0  0  0  0  0  0  0  0  0  0  0  0
    4.7057    4.5855    0.0000 C   0  0  0  0  0  0  0  0  0  0  0  0
    3.9890   -3.2509    0.0000 C   0  0  0  0  0  0  0  0  0  0  0  0
    6.4378    4.5855    0.0000 C   0  0  0  0  0  0  0  0  0  0  0  0
    4.7057    6.5855    0.0000 C   0  0  0  0  0  0  0  0  0  0  0  0
    3.8397    5.0855    0.0000 C   0  0  0  0  0  0  0  0  0  0  0  0
    2.0000   -3.0418    0.0000 C   0  0  0  0  0  0  0  0  0  0  0  0
    2.8900   -4.1409    0.0000 C   0  0  0  0  0  0  0  0  0  0  0  0
    3.0990   -2.1518    0.0000 C   0  0  0  0  0  0  0  0  0  0  0  0
    4.6582   -2.5077    0.0000 C   0  0  0  0  0  0  0  0  0  0  0  0
    6.4378    3.5855    0.0000 C   0  0  0  0  0  0  0  0  0  0  0  0
    5.5717   -2.9145    0.0000 C   0  0  0  0  0  0  0  0  0  0  0  0
    6.2103   -4.5781    0.0000 C   0  0  0  0  0  0  0  0  0  0  0  0
    7.3038    2.0855    0.0000 C   0  0  0  0  0  0  0  0  0  0  0  0
    8.1698    1.5855    0.0000 C   0  0  0  0  0  0  0  0  0  0  0  0
    8.1698    0.5855    0.0000 C   0  0  0  0  0  0  0  0  0  0  0  0
    7.3038    0.0855    0.0000 C   0  0  0  0  0  0  0  0  0  0  0  0
    6.4378    1.5855    0.0000 C   0  0  0  0  0  0  0  0  0  0  0  0
    6.4378   -1.4145    0.0000 C   0  0  0  0  0  0  0  0  0  0  0  0
    7.1614   -4.2691    0.0000 C   0  0  0  0  0  0  0  0  0  0  0  0
    6.0024   -5.5563    0.0000 C   0  0  0  0  0  0  0  0  0  0  0  0
    6.4378    0.5855    0.0000 C   0  0  0  0  0  0  0  0  0  0  0  0
    9.0637    2.1202    0.0000 C   0  0  0  0  0  0  0  0  0  0  0  0
    9.0637    0.0509    0.0000 C   0  0  0  0  0  0  0  0  0  0  0  0
    7.9045   -4.9382    0.0000 C   0  0  0  0  0  0  0  0  0  0  0  0
    6.7456   -6.2254    0.0000 C   0  0  0  0  0  0  0  0  0  0  0  0
    7.6966   -5.9164    0.0000 C   0  0  0  0  0  0  0  0  0  0  0  0
    9.9698    1.6063    0.0000 C   0  0  0  0  0  0  0  0  0  0  0  0
    9.9698    0.5647    0.0000 C   0  0  0  0  0  0  0  0  0  0  0  0
    8.4398   -6.5855    0.0000 C   0  0  0  0  0  0  0  0  0  0  0  0
    6.1823    5.9779    0.0000 H   0  0  0  0  0  0  0  0  0  0  0  0
    5.7838    6.6681    0.0000 H   0  0  0  0  0  0  0  0  0  0  0  0
    4.3072    4.1106    0.0000 H   0  0  0  0  0  0  0  0  0  0  0  0
    5.1042    4.1106    0.0000 H   0  0  0  0  0  0  0  0  0  0  0  0
    7.0483    4.4779    0.0000 H   0  0  0  0  0  0  0  0  0  0  0  0
    6.6498    5.1681    0.0000 H   0  0  0  0  0  0  0  0  0  0  0  0
    5.1042    7.0605    0.0000 H   0  0  0  0  0  0  0  0  0  0  0  0
    4.3072    7.0605    0.0000 H   0  0  0  0  0  0  0  0  0  0  0  0
    3.2291    5.1932    0.0000 H   0  0  0  0  0  0  0  0  0  0  0  0
    3.6276    4.5029    0.0000 H   0  0  0  0  0  0  0  0  0  0  0  0
    2.0648   -2.4252    0.0000 H   0  0  0  0  0  0  0  0  0  0  0  0
    1.3834   -2.9770    0.0000 H   0  0  0  0  0  0  0  0  0  0  0  0
    1.9352   -3.6584    0.0000 H   0  0  0  0  0  0  0  0  0  0  0  0
    2.2734   -4.0761    0.0000 H   0  0  0  0  0  0  0  0  0  0  0  0
    2.8252   -4.7575    0.0000 H   0  0  0  0  0  0  0  0  0  0  0  0
    3.5066   -4.2057    0.0000 H   0  0  0  0  0  0  0  0  0  0  0  0
    3.7156   -2.2166    0.0000 H   0  0  0  0  0  0  0  0  0  0  0  0
    3.1639   -1.5352    0.0000 H   0  0  0  0  0  0  0  0  0  0  0  0
    2.4824   -2.0870    0.0000 H   0  0  0  0  0  0  0  0  0  0  0  0
    4.5293   -1.9013    0.0000 H   0  0  0  0  0  0  0  0  0  0  0  0
    5.8272    3.6932    0.0000 H   0  0  0  0  0  0  0  0  0  0  0  0
    6.2257    3.0029    0.0000 H   0  0  0  0  0  0  0  0  0  0  0  0
    6.9747   -2.7245    0.0000 H   0  0  0  0  0  0  0  0  0  0  0  0
    5.9008    1.8955    0.0000 H   0  0  0  0  0  0  0  0  0  0  0  0
    7.2903   -3.6627    0.0000 H   0  0  0  0  0  0  0  0  0  0  0  0
    5.4128   -5.7479    0.0000 H   0  0  0  0  0  0  0  0  0  0  0  0
    5.9008    0.2755    0.0000 H   0  0  0  0  0  0  0  0  0  0  0  0
    7.8407   -1.2245    0.0000 H   0  0  0  0  0  0  0  0  0  0  0  0
    9.0566    2.7401    0.0000 H   0  0  0  0  0  0  0  0  0  0  0  0
    9.0566   -0.5691    0.0000 H   0  0  0  0  0  0  0  0  0  0  0  0
    8.4942   -4.7466    0.0000 H   0  0  0  0  0  0  0  0  0  0  0  0
    6.6167   -6.8319    0.0000 H   0  0  0  0  0  0  0  0  0  0  0  0
   10.5055    1.9184    0.0000 H   0  0  0  0  0  0  0  0  0  0  0  0
   10.5055    0.2526    0.0000 H   0  0  0  0  0  0  0  0  0  0  0  0
    8.0249   -7.0463    0.0000 H   0  0  0  0  0  0  0  0  0  0  0  0
    8.9005   -7.0004    0.0000 H   0  0  0  0  0  0  0  0  0  0  0  0
    8.8546   -6.1248    0.0000 H   0  0  0  0  0  0  0  0  0  0  0  0
  1 14  1  0  0  0  0
  1 15  1  0  0  0  0
  2 20  1  0  0  0  0
  2 23  1  0  0  0  0
  3 28  2  0  0  0  0
  4 10  1  0  0  0  0
  4 11  1  0  0  0  0
  4 13  1  0  0  0  0
  5  6  1  0  0  0  0
  5 21  1  0  0  0  0
  5 22  1  0  0  0  0
  6 12  2  0  0  0  0
  7 21  1  0  0  0  0
  7 28  1  0  0  0  0
  7 62  1  0  0  0  0
  8 26  1  0  0  0  0
  8 28  1  0  0  0  0
  8 67  1  0  0  0  0
  9 12  1  0  0  0  0
  9 16  1  0  0  0  0
  9 17  1  0  0  0  0
  9 18  1  0  0  0  0
 10 14  1  0  0  0  0
 10 40  1  0  0  0  0
 10 41  1  0  0  0  0
 11 15  1  0  0  0  0
 11 42  1  0  0  0  0
 11 43  1  0  0  0  0
 12 19  1  0  0  0  0
 13 20  1  0  0  0  0
 13 44  1  0  0  0  0
 13 45  1  0  0  0  0
 14 46  1  0  0  0  0
 14 47  1  0  0  0  0
 15 48  1  0  0  0  0
 15 49  1  0  0  0  0
 16 50  1  0  0  0  0
 16 51  1  0  0  0  0
 16 52  1  0  0  0  0
 17 53  1  0  0  0  0
 17 54  1  0  0  0  0
 17 55  1  0  0  0  0
 18 56  1  0  0  0  0
 18 57  1  0  0  0  0
 18 58  1  0  0  0  0
 19 21  2  0  0  0  0
 19 59  1  0  0  0  0
 20 60  1  0  0  0  0
 20 61  1  0  0  0  0
 22 29  2  0  0  0  0
 22 30  1  0  0  0  0
 23 24  1  0  0  0  0
 23 27  2  0  0  0  0
 24 25  1  0  0  0  0
 24 32  2  0  0  0  0
 25 26  1  0  0  0  0
 25 33  2  0  0  0  0
 26 31  2  0  0  0  0
 27 31  1  0  0  0  0
 27 63  1  0  0  0  0
 29 34  1  0  0  0  0
 29 64  1  0  0  0  0
 30 35  2  0  0  0  0
 30 65  1  0  0  0  0
 31 66  1  0  0  0  0
 32 37  1  0  0  0  0
 32 68  1  0  0  0  0
 33 38  1  0  0  0  0
 33 69  1  0  0  0  0
 34 36  2  0  0  0  0
 34 70  1  0  0  0  0
 35 36  1  0  0  0  0
 35 71  1  0  0  0  0
 36 39  1  0  0  0  0
 37 38  2  0  0  0  0
 37 72  1  0  0  0  0
 38 73  1  0  0  0  0
 39 74  1  0  0  0  0
 39 75  1  0  0  0  0
 39 76  1  0  0  0  0
M  END
> <PUBCHEM_COMPOUND_CID>
156422

> <PUBCHEM_COMPOUND_CANONICALIZED>
1

> <PUBCHEM_CACTVS_COMPLEXITY>
777

> <PUBCHEM_CACTVS_HBOND_ACCEPTOR>
5

> <PUBCHEM_CACTVS_HBOND_DONOR>
2

> <PUBCHEM_CACTVS_ROTATABLE_BOND>
8

> <PUBCHEM_CACTVS_SUBSKEYS>
AAADcfB7sAAAAAAAAAAAAAAAAAAAAWAAAAA8YMEAAAAAAADB1AAAHgAYAAAADgzhngYz9tPIBACqAyZidACSDCMhIgAdmCA+bJiOJmLE8duHvCj83RPY6CewwLAPiEABQAAaAAAQgAKAADQAAAAAAAAAAA==

> <PUBCHEM_IUPAC_OPENEYE_NAME>
1-[5-tert-butyl-2-(p-tolyl)pyrazol-3-yl]-3-[4-(2-morpholinoethoxy)-1-naphthyl]urea

> <PUBCHEM_IUPAC_CAS_NAME>
1-[5-tert-butyl-2-(4-methylphenyl)-3-pyrazolyl]-3-[4-[2-(4-morpholinyl)ethoxy]-1-naphthalenyl]urea

> <PUBCHEM_IUPAC_NAME_MARKUP>
1-[5-<I>tert</I>-butyl-2-(4-methylphenyl)pyrazol-3-yl]-3-[4-(2-morpholin-4-ylethoxy)naphthalen-1-yl]urea

> <PUBCHEM_IUPAC_NAME>
1-[5-tert-butyl-2-(4-methylphenyl)pyrazol-3-yl]-3-[4-(2-morpholin-4-ylethoxy)naphthalen-1-yl]urea

> <PUBCHEM_IUPAC_SYSTEMATIC_NAME>
1-[5-tert-butyl-2-(4-methylphenyl)pyrazol-3-yl]-3-[4-(2-morpholin-4-ylethoxy)naphthalen-1-yl]urea

> <PUBCHEM_IUPAC_TRADITIONAL_NAME>
1-[5-tert-butyl-2-(p-tolyl)pyrazol-3-yl]-3-[4-(2-morpholinoethoxy)-1-naphthyl]urea

> <PUBCHEM_IUPAC_INCHI>
InChI=1S/C31H37N5O3/c1-22-9-11-23(12-10-22)36-29(21-28(34-36)31(2,3)4)33-30(37)32-26-13-14-27(25-8-6-5-7-24(25)26)39-20-17-35-15-18-38-19-16-35/h5-14,21H,15-20H2,1-4H3,(H2,32,33,37)

> <PUBCHEM_IUPAC_INCHIKEY>
MVCOAUNKQVWQHZ-UHFFFAOYSA-N

> <PUBCHEM_XLOGP3_AA>
5.7

> <PUBCHEM_EXACT_MASS>
527.28964

> <PUBCHEM_MOLECULAR_FORMULA>
C31H37N5O3

> <PUBCHEM_MOLECULAR_WEIGHT>
527.7

> <PUBCHEM_OPENEYE_CAN_SMILES>
CC1=CC=C(C=C1)N2C(=CC(=N2)C(C)(C)C)NC(=O)NC3=CC=C(C4=CC=CC=C43)OCCN5CCOCC5

> <PUBCHEM_OPENEYE_ISO_SMILES>
CC1=CC=C(C=C1)N2C(=CC(=N2)C(C)(C)C)NC(=O)NC3=CC=C(C4=CC=CC=C43)OCCN5CCOCC5

> <PUBCHEM_CACTVS_TPSA>
80.6

> <PUBCHEM_MONOISOTOPIC_WEIGHT>
527.28964

> <PUBCHEM_TOTAL_CHARGE>
0

> <PUBCHEM_HEAVY_ATOM_COUNT>
39

> <PUBCHEM_ATOM_DEF_STEREO_COUNT>
0

> <PUBCHEM_ATOM_UDEF_STEREO_COUNT>
0

> <PUBCHEM_BOND_DEF_STEREO_COUNT>
0

> <PUBCHEM_BOND_UDEF_STEREO_COUNT>
0

> <PUBCHEM_ISOTOPIC_ATOM_COUNT>
0

> <PUBCHEM_COMPONENT_COUNT>
1

> <PUBCHEM_CACTVS_TAUTO_COUNT>
-1

> <PUBCHEM_COORDINATE_TYPE>
1
5
255

> <PUBCHEM_BONDANNOTATIONS>
12  19  8
19  21  8
22  29  8
22  30  8
23  24  8
23  27  8
24  25  8
24  32  8
25  26  8
25  33  8
26  31  8
27  31  8
29  34  8
30  35  8
32  37  8
33  38  8
34  36  8
35  36  8
37  38  8
5  21  8
5  6  8
6  12  8

$$$$
24856436
  -OEChem-02182015172D

 69 73  0     0  0  0  0  0  0999 V2000
   15.1633   -2.5261    0.0000 O   0  0  0  0  0  0  0  0  0  0  0  0
   11.9171    2.5536    0.0000 O   0  0  0  0  0  0  0  0  0  0  0  0
    4.5981    1.7984    0.0000 N   0  0  0  0  0  0  0  0  0  0  0  0
    2.8660    2.7984    0.0000 N   0  0  0  0  0  0  0  0  0  0  0  0
   11.6065   -0.0064    0.0000 N   0  0  0  0  0  0  0  0  0  0  0  0
   12.1901    0.7984    0.0000 N   0  0  0  0  0  0  0  0  0  0  0  0
    8.0622   -0.2016    0.0000 N   0  0  0  0  0  0  0  0  0  0  0  0
    9.7942   -0.2016    0.0000 N   0  0  0  0  0  0  0  0  0  0  0  0
   12.8956   -1.1631    0.0000 N   0  0  0  0  0  0  0  0  0  0  0  0
    8.9282    1.2984    0.0000 N   0  0  0  0  0  0  0  0  0  0  0  0
    3.7320    1.2984    0.0000 C   0  0  0  0  0  0  0  0  0  0  0  0
    4.5981    2.7984    0.0000 C   0  0  0  0  0  0  0  0  0  0  0  0
    2.8660    1.7984    0.0000 C   0  0  0  0  0  0  0  0  0  0  0  0
    3.7320    3.2984    0.0000 C   0  0  0  0  0  0  0  0  0  0  0  0
    5.4641    1.2984    0.0000 C   0  0  0  0  0  0  0  0  0  0  0  0
    2.0000    3.2984    0.0000 C   0  0  0  0  0  0  0  0  0  0  0  0
    6.3301    1.7984    0.0000 C   0  0  0  0  0  0  0  0  0  0  0  0
    5.4641    0.2984    0.0000 C   0  0  0  0  0  0  0  0  0  0  0  0
   10.6603    0.2984    0.0000 C   0  0  0  0  0  0  0  0  0  0  0  0
    7.1962    0.2984    0.0000 C   0  0  0  0  0  0  0  0  0  0  0  0
    7.1962    1.2984    0.0000 C   0  0  0  0  0  0  0  0  0  0  0  0
    6.3301   -0.2016    0.0000 C   0  0  0  0  0  0  0  0  0  0  0  0
   10.6603    1.2984    0.0000 C   0  0  0  0  0  0  0  0  0  0  0  0
   14.1848   -2.3199    0.0000 C   0  0  0  0  0  0  0  0  0  0  0  0
   11.9171   -0.9569    0.0000 C   0  0  0  0  0  0  0  0  0  0  0  0
   11.6065    1.6031    0.0000 C   0  0  0  0  0  0  0  0  0  0  0  0
   13.2063   -2.1136    0.0000 C   0  0  0  0  0  0  0  0  0  0  0  0
   13.1901    0.7984    0.0000 C   0  0  0  0  0  0  0  0  0  0  0  0
    8.9282    0.2984    0.0000 C   0  0  0  0  0  0  0  0  0  0  0  0
    9.7942    1.7984    0.0000 C   0  0  0  0  0  0  0  0  0  0  0  0
   11.2493   -1.7012    0.0000 C   0  0  0  0  0  0  0  0  0  0  0  0
   13.9786   -3.2984    0.0000 C   0  0  0  0  0  0  0  0  0  0  0  0
   14.3910   -1.3414    0.0000 C   0  0  0  0  0  0  0  0  0  0  0  0
   12.5385   -2.8579    0.0000 C   0  0  0  0  0  0  0  0  0  0  0  0
   11.5600   -2.6517    0.0000 C   0  0  0  0  0  0  0  0  0  0  0  0
   13.6901    1.6644    0.0000 C   0  0  0  0  0  0  0  0  0  0  0  0
   14.6901    1.6644    0.0000 C   0  0  0  0  0  0  0  0  0  0  0  0
    3.3335    0.8234    0.0000 H   0  0  0  0  0  0  0  0  0  0  0  0
    4.1306    0.8234    0.0000 H   0  0  0  0  0  0  0  0  0  0  0  0
    5.2087    2.6907    0.0000 H   0  0  0  0  0  0  0  0  0  0  0  0
    4.8101    3.3810    0.0000 H   0  0  0  0  0  0  0  0  0  0  0  0
    2.2554    1.9060    0.0000 H   0  0  0  0  0  0  0  0  0  0  0  0
    2.6540    1.2158    0.0000 H   0  0  0  0  0  0  0  0  0  0  0  0
    4.1306    3.7733    0.0000 H   0  0  0  0  0  0  0  0  0  0  0  0
    3.3335    3.7733    0.0000 H   0  0  0  0  0  0  0  0  0  0  0  0
    2.3100    3.8353    0.0000 H   0  0  0  0  0  0  0  0  0  0  0  0
    1.4631    3.6084    0.0000 H   0  0  0  0  0  0  0  0  0  0  0  0
    1.6900    2.7614    0.0000 H   0  0  0  0  0  0  0  0  0  0  0  0
    6.3301    2.4184    0.0000 H   0  0  0  0  0  0  0  0  0  0  0  0
    4.9272   -0.0116    0.0000 H   0  0  0  0  0  0  0  0  0  0  0  0
    7.7331    1.6084    0.0000 H   0  0  0  0  0  0  0  0  0  0  0  0
    6.3301   -0.8216    0.0000 H   0  0  0  0  0  0  0  0  0  0  0  0
   13.0824    0.1878    0.0000 H   0  0  0  0  0  0  0  0  0  0  0  0
   13.7727    0.5863    0.0000 H   0  0  0  0  0  0  0  0  0  0  0  0
    8.0622   -0.8216    0.0000 H   0  0  0  0  0  0  0  0  0  0  0  0
    9.7942    2.4184    0.0000 H   0  0  0  0  0  0  0  0  0  0  0  0
   10.6426   -1.5733    0.0000 H   0  0  0  0  0  0  0  0  0  0  0  0
   13.3719   -3.1705    0.0000 H   0  0  0  0  0  0  0  0  0  0  0  0
   13.8507   -3.9050    0.0000 H   0  0  0  0  0  0  0  0  0  0  0  0
   14.5853   -3.4262    0.0000 H   0  0  0  0  0  0  0  0  0  0  0  0
   14.9977   -1.4692    0.0000 H   0  0  0  0  0  0  0  0  0  0  0  0
   14.5189   -0.7347    0.0000 H   0  0  0  0  0  0  0  0  0  0  0  0
   13.7844   -1.2135    0.0000 H   0  0  0  0  0  0  0  0  0  0  0  0
   12.7311   -3.4473    0.0000 H   0  0  0  0  0  0  0  0  0  0  0  0
   11.1459   -3.1132    0.0000 H   0  0  0  0  0  0  0  0  0  0  0  0
   13.3801    2.2013    0.0000 H   0  0  0  0  0  0  0  0  0  0  0  0
   15.3559   -3.1154    0.0000 H   0  0  0  0  0  0  0  0  0  0  0  0
   15.0001    1.1274    0.0000 H   0  0  0  0  0  0  0  0  0  0  0  0
   15.0001    2.2013    0.0000 H   0  0  0  0  0  0  0  0  0  0  0  0
  1 24  1  0  0  0  0
  1 67  1  0  0  0  0
  2 26  2  0  0  0  0
  3 11  1  0  0  0  0
  3 12  1  0  0  0  0
  3 15  1  0  0  0  0
  4 13  1  0  0  0  0
  4 14  1  0  0  0  0
  4 16  1  0  0  0  0
  5  6  1  0  0  0  0
  5 19  1  0  0  0  0
  5 25  1  0  0  0  0
  6 26  1  0  0  0  0
  6 28  1  0  0  0  0
  7 20  1  0  0  0  0
  7 29  1  0  0  0  0
  7 55  1  0  0  0  0
  8 19  2  0  0  0  0
  8 29  1  0  0  0  0
  9 25  1  0  0  0  0
  9 27  2  0  0  0  0
 10 29  2  0  0  0  0
 10 30  1  0  0  0  0
 11 13  1  0  0  0  0
 11 38  1  0  0  0  0
 11 39  1  0  0  0  0
 12 14  1  0  0  0  0
 12 40  1  0  0  0  0
 12 41  1  0  0  0  0
 13 42  1  0  0  0  0
 13 43  1  0  0  0  0
 14 44  1  0  0  0  0
 14 45  1  0  0  0  0
 15 17  2  0  0  0  0
 15 18  1  0  0  0  0
 16 46  1  0  0  0  0
 16 47  1  0  0  0  0
 16 48  1  0  0  0  0
 17 21  1  0  0  0  0
 17 49  1  0  0  0  0
 18 22  2  0  0  0  0
 18 50  1  0  0  0  0
 19 23  1  0  0  0  0
 20 21  2  0  0  0  0
 20 22  1  0  0  0  0
 21 51  1  0  0  0  0
 22 52  1  0  0  0  0
 23 26  1  0  0  0  0
 23 30  2  0  0  0  0
 24 27  1  0  0  0  0
 24 32  1  0  0  0  0
 24 33  1  0  0  0  0
 25 31  2  0  0  0  0
 27 34  1  0  0  0  0
 28 36  1  0  0  0  0
 28 53  1  0  0  0  0
 28 54  1  0  0  0  0
 30 56  1  0  0  0  0
 31 35  1  0  0  0  0
 31 57  1  0  0  0  0
 32 58  1  0  0  0  0
 32 59  1  0  0  0  0
 32 60  1  0  0  0  0
 33 61  1  0  0  0  0
 33 62  1  0  0  0  0
 33 63  1  0  0  0  0
 34 35  2  0  0  0  0
 34 64  1  0  0  0  0
 35 65  1  0  0  0  0
 36 37  2  0  0  0  0
 36 66  1  0  0  0  0
 37 68  1  0  0  0  0
 37 69  1  0  0  0  0
M  END
> <PUBCHEM_COMPOUND_CID>
24856436

> <PUBCHEM_COMPOUND_CANONICALIZED>
1

> <PUBCHEM_CACTVS_COMPLEXITY>
795

> <PUBCHEM_CACTVS_HBOND_ACCEPTOR>
9

> <PUBCHEM_CACTVS_HBOND_DONOR>
2

> <PUBCHEM_CACTVS_ROTATABLE_BOND>
7

> <PUBCHEM_CACTVS_SUBSKEYS>
AAADcfB78AAAAAAAAAAAAAAAAAAAAWAAAAA8WLEAAAAAAFgB8AAAHgAYCAAADEzBngQ/8JfIEgCoAzd3dASChCk1AqAf2CE4bNiKburA2dGUdIhs1gPY2OeQwEAMAACAAAAAAAAAAQAAAAAAAAAAAAAAAA==

> <PUBCHEM_IUPAC_OPENEYE_NAME>
2-allyl-1-[6-(1-hydroxy-1-methyl-ethyl)-2-pyridyl]-6-[4-(4-methylpiperazin-1-yl)anilino]pyrazolo[3,4-d]pyrimidin-3-one

> <PUBCHEM_IUPAC_CAS_NAME>
1-[6-(2-hydroxypropan-2-yl)-2-pyridinyl]-6-[4-(4-methyl-1-piperazinyl)anilino]-2-prop-2-enyl-3-pyrazolo[3,4-d]pyrimidinone

> <PUBCHEM_IUPAC_NAME_MARKUP>
1-[6-(2-hydroxypropan-2-yl)pyridin-2-yl]-6-[4-(4-methylpiperazin-1-yl)anilino]-2-prop-2-enylpyrazolo[3,4-d]pyrimidin-3-one

> <PUBCHEM_IUPAC_NAME>
1-[6-(2-hydroxypropan-2-yl)pyridin-2-yl]-6-[4-(4-methylpiperazin-1-yl)anilino]-2-prop-2-enylpyrazolo[3,4-d]pyrimidin-3-one

> <PUBCHEM_IUPAC_SYSTEMATIC_NAME>
6-[[4-(4-methylpiperazin-1-yl)phenyl]amino]-1-[6-(2-oxidanylpropan-2-yl)pyridin-2-yl]-2-prop-2-enyl-pyrazolo[3,4-d]pyrimidin-3-one

> <PUBCHEM_IUPAC_TRADITIONAL_NAME>
2-allyl-1-[6-(1-hydroxy-1-methyl-ethyl)-2-pyridyl]-6-[4-(4-methylpiperazino)anilino]pyrazolo[3,4-d]pyrimidin-3-one

> <PUBCHEM_IUPAC_INCHI>
InChI=1S/C27H32N8O2/c1-5-13-34-25(36)21-18-28-26(29-19-9-11-20(12-10-19)33-16-14-32(4)15-17-33)31-24(21)35(34)23-8-6-7-22(30-23)27(2,3)37/h5-12,18,37H,1,13-17H2,2-4H3,(H,28,29,31)

> <PUBCHEM_IUPAC_INCHIKEY>
BKWJAKQVGHWELA-UHFFFAOYSA-N

> <PUBCHEM_XLOGP3_AA>
3.1

> <PUBCHEM_EXACT_MASS>
500.264822

> <PUBCHEM_MOLECULAR_FORMULA>
C27H32N8O2

> <PUBCHEM_MOLECULAR_WEIGHT>
500.6

> <PUBCHEM_OPENEYE_CAN_SMILES>
CC(C)(C1=NC(=CC=C1)N2C3=NC(=NC=C3C(=O)N2CC=C)NC4=CC=C(C=C4)N5CCN(CC5)C)O

> <PUBCHEM_OPENEYE_ISO_SMILES>
CC(C)(C1=NC(=CC=C1)N2C3=NC(=NC=C3C(=O)N2CC=C)NC4=CC=C(C=C4)N5CCN(CC5)C)O

> <PUBCHEM_CACTVS_TPSA>
101

> <PUBCHEM_MONOISOTOPIC_WEIGHT>
500.264822

> <PUBCHEM_TOTAL_CHARGE>
0

> <PUBCHEM_HEAVY_ATOM_COUNT>
37

> <PUBCHEM_ATOM_DEF_STEREO_COUNT>
0

> <PUBCHEM_ATOM_UDEF_STEREO_COUNT>
0

> <PUBCHEM_BOND_DEF_STEREO_COUNT>
0

> <PUBCHEM_BOND_UDEF_STEREO_COUNT>
0

> <PUBCHEM_ISOTOPIC_ATOM_COUNT>
0

> <PUBCHEM_COMPONENT_COUNT>
1

> <PUBCHEM_CACTVS_TAUTO_COUNT>
-1

> <PUBCHEM_COORDINATE_TYPE>
1
5
255

> <PUBCHEM_BONDANNOTATIONS>
10  29  8
10  30  8
15  17  8
15  18  8
17  21  8
18  22  8
19  23  8
20  21  8
20  22  8
23  26  8
23  30  8
25  31  8
27  34  8
31  35  8
34  35  8
5  19  8
5  6  8
6  26  8
8  19  8
8  29  8
9  25  8
9  27  8

$$$$
5394
  -OEChem-02182015172D

 20 21  0     0  0  0  0  0  0999 V2000
    3.7320    2.2754    0.0000 O   0  0  0  0  0  0  0  0  0  0  0  0
    5.1871   -2.2242    0.0000 O   0  0  0  0  0  0  0  0  0  0  0  0
    4.5981    0.7754    0.0000 N   0  0  0  0  0  0  0  0  0  0  0  0
    2.8660    0.7754    0.0000 N   0  0  0  0  0  0  0  0  0  0  0  0
    6.1279    0.2754    0.0000 N   0  0  0  0  0  0  0  0  0  0  0  0
    3.7320   -0.7246    0.0000 N   0  0  0  0  0  0  0  0  0  0  0  0
    2.8660   -0.2246    0.0000 N   0  0  0  0  0  0  0  0  0  0  0  0
    6.8335   -1.6861    0.0000 N   0  0  0  0  0  0  0  0  0  0  0  0
    4.5981   -0.2246    0.0000 C   0  0  0  0  0  0  0  0  0  0  0  0
    5.5443   -0.5293    0.0000 C   0  0  0  0  0  0  0  0  0  0  0  0
    3.7320    1.2754    0.0000 C   0  0  0  0  0  0  0  0  0  0  0  0
    5.5443    1.0801    0.0000 C   0  0  0  0  0  0  0  0  0  0  0  0
    2.0000    1.2754    0.0000 C   0  0  0  0  0  0  0  0  0  0  0  0
    5.8550   -1.4799    0.0000 C   0  0  0  0  0  0  0  0  0  0  0  0
    5.7369    1.6694    0.0000 H   0  0  0  0  0  0  0  0  0  0  0  0
    2.3100    1.8123    0.0000 H   0  0  0  0  0  0  0  0  0  0  0  0
    1.4631    1.5854    0.0000 H   0  0  0  0  0  0  0  0  0  0  0  0
    1.6900    0.7385    0.0000 H   0  0  0  0  0  0  0  0  0  0  0  0
    7.0261   -2.2754    0.0000 H   0  0  0  0  0  0  0  0  0  0  0  0
    7.2475   -1.2246    0.0000 H   0  0  0  0  0  0  0  0  0  0  0  0
  1 11  2  0  0  0  0
  2 14  2  0  0  0  0
  3  9  1  0  0  0  0
  3 11  1  0  0  0  0
  3 12  1  0  0  0  0
  4  7  1  0  0  0  0
  4 11  1  0  0  0  0
  4 13  1  0  0  0  0
  5 10  1  0  0  0  0
  5 12  2  0  0  0  0
  6  7  2  0  0  0  0
  6  9  1  0  0  0  0
  8 14  1  0  0  0  0
  8 19  1  0  0  0  0
  8 20  1  0  0  0  0
  9 10  2  0  0  0  0
 10 14  1  0  0  0  0
 12 15  1  0  0  0  0
 13 16  1  0  0  0  0
 13 17  1  0  0  0  0
 13 18  1  0  0  0  0
M  END
> <PUBCHEM_COMPOUND_CID>
5394

> <PUBCHEM_COMPOUND_CANONICALIZED>
1

> <PUBCHEM_CACTVS_COMPLEXITY>
315

> <PUBCHEM_CACTVS_HBOND_ACCEPTOR>
5

> <PUBCHEM_CACTVS_HBOND_DONOR>
1

> <PUBCHEM_CACTVS_ROTATABLE_BOND>
1

> <PUBCHEM_CACTVS_SUBSKEYS>
AAADcYBjsAAAAAAAAAAAAAAAAAAAAWAAAAAgAAAAAAAAAEABgAAAHgAYAAAACAgBlgQHsBdMEACqAQdxdACAgC0XEKAHUAGoVECASAhASCAUAIAIBwJAAGAAAAAAAAAAAAAAAAAAAAAAAAAAAAAAAAAAAA==

> <PUBCHEM_IUPAC_OPENEYE_NAME>
3-methyl-4-oxo-imidazo[5,1-d][1,2,3,5]tetrazine-8-carboxamide

> <PUBCHEM_IUPAC_CAS_NAME>
3-methyl-4-oxo-8-imidazo[5,1-d][1,2,3,5]tetrazinecarboxamide

> <PUBCHEM_IUPAC_NAME_MARKUP>
3-methyl-4-oxoimidazo[5,1-d][1,2,3,5]tetrazine-8-carboxamide

> <PUBCHEM_IUPAC_NAME>
3-methyl-4-oxoimidazo[5,1-d][1,2,3,5]tetrazine-8-carboxamide

> <PUBCHEM_IUPAC_SYSTEMATIC_NAME>
3-methyl-4-oxidanylidene-imidazo[5,1-d][1,2,3,5]tetrazine-8-carboxamide

> <PUBCHEM_IUPAC_TRADITIONAL_NAME>
4-keto-3-methyl-imidazo[5,1-d][1,2,3,5]tetrazine-8-carboxamide

> <PUBCHEM_IUPAC_INCHI>
InChI=1S/C6H6N6O2/c1-11-6(14)12-2-8-3(4(7)13)5(12)9-10-11/h2H,1H3,(H2,7,13)

> <PUBCHEM_IUPAC_INCHIKEY>
BPEGJWRSRHCHSN-UHFFFAOYSA-N

> <PUBCHEM_XLOGP3>
-1.1

> <PUBCHEM_EXACT_MASS>
194.055223

> <PUBCHEM_MOLECULAR_FORMULA>
C6H6N6O2

> <PUBCHEM_MOLECULAR_WEIGHT>
194.15

> <PUBCHEM_OPENEYE_CAN_SMILES>
CN1C(=O)N2C=NC(=C2N=N1)C(=O)N

> <PUBCHEM_OPENEYE_ISO_SMILES>
CN1C(=O)N2C=NC(=C2N=N1)C(=O)N

> <PUBCHEM_CACTVS_TPSA>
106

> <PUBCHEM_MONOISOTOPIC_WEIGHT>
194.055223

> <PUBCHEM_TOTAL_CHARGE>
0

> <PUBCHEM_HEAVY_ATOM_COUNT>
14

> <PUBCHEM_ATOM_DEF_STEREO_COUNT>
0

> <PUBCHEM_ATOM_UDEF_STEREO_COUNT>
0

> <PUBCHEM_BOND_DEF_STEREO_COUNT>
0

> <PUBCHEM_BOND_UDEF_STEREO_COUNT>
0

> <PUBCHEM_ISOTOPIC_ATOM_COUNT>
0

> <PUBCHEM_COMPONENT_COUNT>
1

> <PUBCHEM_CACTVS_TAUTO_COUNT>
-1

> <PUBCHEM_COORDINATE_TYPE>
1
5
255

> <PUBCHEM_BONDANNOTATIONS>
3  11  8
3  12  8
3  9  8
4  11  8
4  7  8
5  10  8
5  12  8
6  7  8
6  9  8
9  10  8

$$$$
24360
  -OEChem-02182015172D

 42 46  0     1  0  0  0  0  0999 V2000
    4.6140    4.1410    0.0000 O   0  0  0  0  0  0  0  0  0  0  0  0
    6.5080    2.5670    0.0000 O   0  0  0  0  0  0  0  0  0  0  0  0
    2.0000    2.5718    0.0000 O   0  0  0  0  0  0  0  0  0  0  0  0
    6.3840    4.1168    0.0000 O   0  0  0  0  0  0  0  0  0  0  0  0
    2.8660    1.0718    0.0000 N   0  0  0  0  0  0  0  0  0  0  0  0
    4.1436   -1.2288    0.0000 N   0  0  0  0  0  0  0  0  0  0  0  0
    5.5081    2.5786    0.0000 C   0  0  2  0  0  0  0  0  0  0  0  0
    4.5981    2.0718    0.0000 C   0  0  0  0  0  0  0  0  0  0  0  0
    3.7320    0.5718    0.0000 C   0  0  0  0  0  0  0  0  0  0  0  0
    3.7320    2.5718    0.0000 C   0  0  0  0  0  0  0  0  0  0  0  0
    2.1290    0.4047    0.0000 C   0  0  0  0  0  0  0  0  0  0  0  0
    4.5981    1.0718    0.0000 C   0  0  0  0  0  0  0  0  0  0  0  0
    2.5341   -0.5031    0.0000 C   0  0  0  0  0  0  0  0  0  0  0  0
    3.5228   -0.4001    0.0000 C   0  0  0  0  0  0  0  0  0  0  0  0
    2.8660    2.0718    0.0000 C   0  0  0  0  0  0  0  0  0  0  0  0
    5.9980    1.7068    0.0000 C   0  0  0  0  0  0  0  0  0  0  0  0
    3.7160    3.6133    0.0000 C   0  0  0  0  0  0  0  0  0  0  0  0
    5.5161    3.6202    0.0000 C   0  0  0  0  0  0  0  0  0  0  0  0
    2.0976   -1.4421    0.0000 C   0  0  0  0  0  0  0  0  0  0  0  0
    5.4880    0.8467    0.0000 C   0  0  0  0  0  0  0  0  0  0  0  0
    2.6990   -2.2850    0.0000 C   0  0  0  0  0  0  0  0  0  0  0  0
    3.7289   -2.1776    0.0000 C   0  0  0  0  0  0  0  0  0  0  0  0
    2.2444   -3.2630    0.0000 C   0  0  0  0  0  0  0  0  0  0  0  0
    4.3755   -3.0409    0.0000 C   0  0  0  0  0  0  0  0  0  0  0  0
    2.8708   -4.1410    0.0000 C   0  0  0  0  0  0  0  0  0  0  0  0
    3.9436   -4.0292    0.0000 C   0  0  0  0  0  0  0  0  0  0  0  0
    1.7636    0.9055    0.0000 H   0  0  0  0  0  0  0  0  0  0  0  0
    1.5925    0.0939    0.0000 H   0  0  0  0  0  0  0  0  0  0  0  0
    5.1350    0.7618    0.0000 H   0  0  0  0  0  0  0  0  0  0  0  0
    6.4683    1.3028    0.0000 H   0  0  0  0  0  0  0  0  0  0  0  0
    6.4776    2.0999    0.0000 H   0  0  0  0  0  0  0  0  0  0  0  0
    3.4980    4.1937    0.0000 H   0  0  0  0  0  0  0  0  0  0  0  0
    3.1068    3.4978    0.0000 H   0  0  0  0  0  0  0  0  0  0  0  0
    1.4802   -1.4992    0.0000 H   0  0  0  0  0  0  0  0  0  0  0  0
    4.9547    1.1628    0.0000 H   0  0  0  0  0  0  0  0  0  0  0  0
    5.1719    0.3133    0.0000 H   0  0  0  0  0  0  0  0  0  0  0  0
    6.0214    0.5305    0.0000 H   0  0  0  0  0  0  0  0  0  0  0  0
    6.8118    2.0266    0.0000 H   0  0  0  0  0  0  0  0  0  0  0  0
    1.6270   -3.3202    0.0000 H   0  0  0  0  0  0  0  0  0  0  0  0
    4.9914   -2.9695    0.0000 H   0  0  0  0  0  0  0  0  0  0  0  0
    2.6160   -4.7062    0.0000 H   0  0  0  0  0  0  0  0  0  0  0  0
    4.3095   -4.5297    0.0000 H   0  0  0  0  0  0  0  0  0  0  0  0
  1 17  1  0  0  0  0
  1 18  1  0  0  0  0
  7  2  1  1  0  0  0
  2 38  1  0  0  0  0
  3 15  2  0  0  0  0
  4 18  2  0  0  0  0
  5  9  1  0  0  0  0
  5 11  1  0  0  0  0
  5 15  1  0  0  0  0
  6 14  2  0  0  0  0
  6 22  1  0  0  0  0
  7  8  1  0  0  0  0
  7 16  1  0  0  0  0
  7 18  1  0  0  0  0
  8 10  2  0  0  0  0
  8 12  1  0  0  0  0
  9 12  2  0  0  0  0
  9 14  1  0  0  0  0
 10 15  1  0  0  0  0
 10 17  1  0  0  0  0
 11 13  1  0  0  0  0
 11 27  1  0  0  0  0
 11 28  1  0  0  0  0
 12 29  1  0  0  0  0
 13 14  1  0  0  0  0
 13 19  2  0  0  0  0
 16 20  1  0  0  0  0
 16 30  1  0  0  0  0
 16 31  1  0  0  0  0
 17 32  1  0  0  0  0
 17 33  1  0  0  0  0
 19 21  1  0  0  0  0
 19 34  1  0  0  0  0
 20 35  1  0  0  0  0
 20 36  1  0  0  0  0
 20 37  1  0  0  0  0
 21 22  1  0  0  0  0
 21 23  2  0  0  0  0
 22 24  2  0  0  0  0
 23 25  1  0  0  0  0
 23 39  1  0  0  0  0
 24 26  1  0  0  0  0
 24 40  1  0  0  0  0
 25 26  2  0  0  0  0
 25 41  1  0  0  0  0
 26 42  1  0  0  0  0
M  END
> <PUBCHEM_COMPOUND_CID>
24360

> <PUBCHEM_COMPOUND_CANONICALIZED>
1

> <PUBCHEM_CACTVS_COMPLEXITY>
742

> <PUBCHEM_CACTVS_HBOND_ACCEPTOR>
5

> <PUBCHEM_CACTVS_HBOND_DONOR>
1

> <PUBCHEM_CACTVS_ROTATABLE_BOND>
1

> <PUBCHEM_CACTVS_SUBSKEYS>
AAADceB7OAAAAAAAAAAAAAAAAAAAAWAAAAA8QIEAAAAAAFix8AAAHgAACAAADEzhngYyyPMIFgCoAyXyXAKCgCAhAiAImCF4ZNgJZPbA8ZGWcAhm5gDL+QcQgMAOAAAAAAACAAAAAAAAAAQAAAAAAAAAAA==

> <PUBCHEM_IUPAC_OPENEYE_NAME>
(19S)-19-ethyl-19-hydroxy-17-oxa-3,13-diazapentacyclo[11.8.0.02,11.04,9.015,20]henicosa-1(21),2,4,6,8,10,15(20)-heptaene-14,18-dione

> <PUBCHEM_IUPAC_CAS_NAME>
(19S)-19-ethyl-19-hydroxy-17-oxa-3,13-diazapentacyclo[11.8.0.02,11.04,9.015,20]heneicosa-1(21),2,4,6,8,10,15(20)-heptaene-14,18-dione

> <PUBCHEM_IUPAC_NAME_MARKUP>
(19<I>S</I>)-19-ethyl-19-hydroxy-17-oxa-3,13-diazapentacyclo[11.8.0.0<SUP>2,11</SUP>.0<SUP>4,9</SUP>.0<SUP>15,20</SUP>]henicosa-1(21),2,4,6,8,10,15(20)-heptaene-14,18-dione

> <PUBCHEM_IUPAC_NAME>
(19S)-19-ethyl-19-hydroxy-17-oxa-3,13-diazapentacyclo[11.8.0.02,11.04,9.015,20]henicosa-1(21),2,4,6,8,10,15(20)-heptaene-14,18-dione

> <PUBCHEM_IUPAC_SYSTEMATIC_NAME>
(19S)-19-ethyl-19-oxidanyl-17-oxa-3,13-diazapentacyclo[11.8.0.02,11.04,9.015,20]henicosa-1(21),2,4,6,8,10,15(20)-heptaene-14,18-dione

> <PUBCHEM_IUPAC_TRADITIONAL_NAME>
(19S)-19-ethyl-19-hydroxy-17-oxa-3,13-diazapentacyclo[11.8.0.02,11.04,9.015,20]heneicosa-1(21),2,4,6,8,10,15(20)-heptaene-14,18-quinone

> <PUBCHEM_IUPAC_INCHI>
InChI=1S/C20H16N2O4/c1-2-20(25)14-8-16-17-12(7-11-5-3-4-6-15(11)21-17)9-22(16)18(23)13(14)10-26-19(20)24/h3-8,25H,2,9-10H2,1H3/t20-/m0/s1

> <PUBCHEM_IUPAC_INCHIKEY>
VSJKWCGYPAHWDS-FQEVSTJZSA-N

> <PUBCHEM_XLOGP3_AA>
1

> <PUBCHEM_EXACT_MASS>
348.111007

> <PUBCHEM_MOLECULAR_FORMULA>
C20H16N2O4

> <PUBCHEM_MOLECULAR_WEIGHT>
348.4

> <PUBCHEM_OPENEYE_CAN_SMILES>
CCC1(C2=C(COC1=O)C(=O)N3CC4=CC5=CC=CC=C5N=C4C3=C2)O

> <PUBCHEM_OPENEYE_ISO_SMILES>
CC[C@@]1(C2=C(COC1=O)C(=O)N3CC4=CC5=CC=CC=C5N=C4C3=C2)O

> <PUBCHEM_CACTVS_TPSA>
79.7

> <PUBCHEM_MONOISOTOPIC_WEIGHT>
348.111007

> <PUBCHEM_TOTAL_CHARGE>
0

> <PUBCHEM_HEAVY_ATOM_COUNT>
26

> <PUBCHEM_ATOM_DEF_STEREO_COUNT>
1

> <PUBCHEM_ATOM_UDEF_STEREO_COUNT>
0

> <PUBCHEM_BOND_DEF_STEREO_COUNT>
0

> <PUBCHEM_BOND_UDEF_STEREO_COUNT>
0

> <PUBCHEM_ISOTOPIC_ATOM_COUNT>
0

> <PUBCHEM_COMPONENT_COUNT>
1

> <PUBCHEM_CACTVS_TAUTO_COUNT>
-1

> <PUBCHEM_COORDINATE_TYPE>
1
5
255

> <PUBCHEM_BONDANNOTATIONS>
10  15  8
13  14  8
13  19  8
19  21  8
7  2  5
21  22  8
21  23  8
22  24  8
23  25  8
24  26  8
25  26  8
5  15  8
5  9  8
6  14  8
6  22  8
8  10  8
8  12  8
9  12  8

$$$$
42642645
  -OEChem-02182015172D

 80 85  0     0  0  0  0  0  0999 V2000
    8.9214    1.2374    0.0000 F   0  0  0  0  0  0  0  0  0  0  0  0
   14.0363    8.2970    0.0000 F   0  0  0  0  0  0  0  0  0  0  0  0
   11.5020    2.7674    0.0000 O   0  0  0  0  0  0  0  0  0  0  0  0
   12.3506    4.2773    0.0000 O   0  0  0  0  0  0  0  0  0  0  0  0
    2.0000   -7.7970    0.0000 O   0  0  0  0  0  0  0  0  0  0  0  0
    8.9446   -0.7624    0.0000 O   0  0  0  0  0  0  0  0  0  0  0  0
    5.4641   -3.7970    0.0000 O   0  0  0  0  0  0  0  0  0  0  0  0
    5.4641   -1.7970    0.0000 O   0  0  0  0  0  0  0  0  0  0  0  0
   12.3853    1.2775    0.0000 N   0  0  0  0  0  0  0  0  0  0  0  0
   14.0825    4.2973    0.0000 N   0  0  0  0  0  0  0  0  0  0  0  0
    3.7320   -6.7970    0.0000 N   0  0  0  0  0  0  0  0  0  0  0  0
    8.9561   -3.8317    0.0000 N   0  0  0  0  0  0  0  0  0  0  0  0
   13.2339    2.7874    0.0000 C   0  0  0  0  0  0  0  0  0  0  0  0
   13.7439    1.9272    0.0000 C   0  0  0  0  0  0  0  0  0  0  0  0
   14.2339    2.7990    0.0000 C   0  0  0  0  0  0  0  0  0  0  0  0
   12.3737    2.2774    0.0000 C   0  0  0  0  0  0  0  0  0  0  0  0
   13.2224    3.7873    0.0000 C   0  0  0  0  0  0  0  0  0  0  0  0
   11.5251    0.7675    0.0000 C   0  0  0  0  0  0  0  0  0  0  0  0
   14.0710    5.2972    0.0000 C   0  0  0  0  0  0  0  0  0  0  0  0
   10.6534    1.2574    0.0000 C   0  0  0  0  0  0  0  0  0  0  0  0
   11.5367   -0.2324    0.0000 C   0  0  0  0  0  0  0  0  0  0  0  0
   13.1992    5.7872    0.0000 C   0  0  0  0  0  0  0  0  0  0  0  0
   14.9312    5.8072    0.0000 C   0  0  0  0  0  0  0  0  0  0  0  0
    9.7932    0.7475    0.0000 C   0  0  0  0  0  0  0  0  0  0  0  0
   10.6765   -0.7424    0.0000 C   0  0  0  0  0  0  0  0  0  0  0  0
   13.1877    6.7871    0.0000 C   0  0  0  0  0  0  0  0  0  0  0  0
   14.9196    6.8072    0.0000 C   0  0  0  0  0  0  0  0  0  0  0  0
    2.8660   -6.2970    0.0000 C   0  0  0  0  0  0  0  0  0  0  0  0
    3.7320   -7.7970    0.0000 C   0  0  0  0  0  0  0  0  0  0  0  0
    4.5981   -6.2970    0.0000 C   0  0  0  0  0  0  0  0  0  0  0  0
    9.8047   -0.2525    0.0000 C   0  0  0  0  0  0  0  0  0  0  0  0
    2.0000   -6.7970    0.0000 C   0  0  0  0  0  0  0  0  0  0  0  0
    2.8660   -8.2970    0.0000 C   0  0  0  0  0  0  0  0  0  0  0  0
   14.0479    7.2971    0.0000 C   0  0  0  0  0  0  0  0  0  0  0  0
    4.5981   -5.2970    0.0000 C   0  0  0  0  0  0  0  0  0  0  0  0
    5.4641   -4.7970    0.0000 C   0  0  0  0  0  0  0  0  0  0  0  0
    8.9561   -1.7624    0.0000 C   0  0  0  0  0  0  0  0  0  0  0  0
    8.0622   -2.2970    0.0000 C   0  0  0  0  0  0  0  0  0  0  0  0
    6.3301   -3.2970    0.0000 C   0  0  0  0  0  0  0  0  0  0  0  0
    8.0622   -3.2970    0.0000 C   0  0  0  0  0  0  0  0  0  0  0  0
    6.3301   -2.2970    0.0000 C   0  0  0  0  0  0  0  0  0  0  0  0
    7.1962   -3.7970    0.0000 C   0  0  0  0  0  0  0  0  0  0  0  0
    7.1962   -1.7970    0.0000 C   0  0  0  0  0  0  0  0  0  0  0  0
    9.8622   -2.2762    0.0000 C   0  0  0  0  0  0  0  0  0  0  0  0
    9.8622   -3.3178    0.0000 C   0  0  0  0  0  0  0  0  0  0  0  0
    5.4641   -0.7970    0.0000 C   0  0  0  0  0  0  0  0  0  0  0  0
   13.2736    1.5232    0.0000 H   0  0  0  0  0  0  0  0  0  0  0  0
   14.2234    1.5342    0.0000 H   0  0  0  0  0  0  0  0  0  0  0  0
   14.8189    2.5936    0.0000 H   0  0  0  0  0  0  0  0  0  0  0  0
   14.3344    3.4107    0.0000 H   0  0  0  0  0  0  0  0  0  0  0  0
   12.9258    0.9737    0.0000 H   0  0  0  0  0  0  0  0  0  0  0  0
   14.6230    3.9935    0.0000 H   0  0  0  0  0  0  0  0  0  0  0  0
   10.6462    1.8774    0.0000 H   0  0  0  0  0  0  0  0  0  0  0  0
   12.0772   -0.5362    0.0000 H   0  0  0  0  0  0  0  0  0  0  0  0
   12.6659    5.4710    0.0000 H   0  0  0  0  0  0  0  0  0  0  0  0
   15.4717    5.5034    0.0000 H   0  0  0  0  0  0  0  0  0  0  0  0
   10.6837   -1.3624    0.0000 H   0  0  0  0  0  0  0  0  0  0  0  0
    3.2646   -5.8221    0.0000 H   0  0  0  0  0  0  0  0  0  0  0  0
    2.4675   -5.8221    0.0000 H   0  0  0  0  0  0  0  0  0  0  0  0
    3.9441   -8.3796    0.0000 H   0  0  0  0  0  0  0  0  0  0  0  0
    4.3426   -7.6894    0.0000 H   0  0  0  0  0  0  0  0  0  0  0  0
    4.8101   -6.8796    0.0000 H   0  0  0  0  0  0  0  0  0  0  0  0
    5.2087   -6.1894    0.0000 H   0  0  0  0  0  0  0  0  0  0  0  0
   12.6472    7.0909    0.0000 H   0  0  0  0  0  0  0  0  0  0  0  0
   15.4529    7.1233    0.0000 H   0  0  0  0  0  0  0  0  0  0  0  0
    1.7880   -6.2144    0.0000 H   0  0  0  0  0  0  0  0  0  0  0  0
    1.3894   -6.9047    0.0000 H   0  0  0  0  0  0  0  0  0  0  0  0
    2.4675   -8.7720    0.0000 H   0  0  0  0  0  0  0  0  0  0  0  0
    3.2646   -8.7720    0.0000 H   0  0  0  0  0  0  0  0  0  0  0  0
    4.3860   -4.7144    0.0000 H   0  0  0  0  0  0  0  0  0  0  0  0
    3.9875   -5.4047    0.0000 H   0  0  0  0  0  0  0  0  0  0  0  0
    5.6762   -5.3796    0.0000 H   0  0  0  0  0  0  0  0  0  0  0  0
    6.0747   -4.6894    0.0000 H   0  0  0  0  0  0  0  0  0  0  0  0
    7.1962   -4.4170    0.0000 H   0  0  0  0  0  0  0  0  0  0  0  0
    7.1962   -1.1770    0.0000 H   0  0  0  0  0  0  0  0  0  0  0  0
   10.3979   -1.9642    0.0000 H   0  0  0  0  0  0  0  0  0  0  0  0
   10.3979   -3.6299    0.0000 H   0  0  0  0  0  0  0  0  0  0  0  0
    6.0841   -0.7970    0.0000 H   0  0  0  0  0  0  0  0  0  0  0  0
    5.4641   -0.1770    0.0000 H   0  0  0  0  0  0  0  0  0  0  0  0
    4.8441   -0.7970    0.0000 H   0  0  0  0  0  0  0  0  0  0  0  0
  1 24  1  0  0  0  0
  2 34  1  0  0  0  0
  3 16  2  0  0  0  0
  4 17  2  0  0  0  0
  5 32  1  0  0  0  0
  5 33  1  0  0  0  0
  6 31  1  0  0  0  0
  6 37  1  0  0  0  0
  7 36  1  0  0  0  0
  7 39  1  0  0  0  0
  8 41  1  0  0  0  0
  8 46  1  0  0  0  0
  9 16  1  0  0  0  0
  9 18  1  0  0  0  0
  9 51  1  0  0  0  0
 10 17  1  0  0  0  0
 10 19  1  0  0  0  0
 10 52  1  0  0  0  0
 11 28  1  0  0  0  0
 11 29  1  0  0  0  0
 11 30  1  0  0  0  0
 12 40  2  0  0  0  0
 12 45  1  0  0  0  0
 13 14  1  0  0  0  0
 13 15  1  0  0  0  0
 13 16  1  0  0  0  0
 13 17  1  0  0  0  0
 14 15  1  0  0  0  0
 14 47  1  0  0  0  0
 14 48  1  0  0  0  0
 15 49  1  0  0  0  0
 15 50  1  0  0  0  0
 18 20  2  0  0  0  0
 18 21  1  0  0  0  0
 19 22  2  0  0  0  0
 19 23  1  0  0  0  0
 20 24  1  0  0  0  0
 20 53  1  0  0  0  0
 21 25  2  0  0  0  0
 21 54  1  0  0  0  0
 22 26  1  0  0  0  0
 22 55  1  0  0  0  0
 23 27  2  0  0  0  0
 23 56  1  0  0  0  0
 24 31  2  0  0  0  0
 25 31  1  0  0  0  0
 25 57  1  0  0  0  0
 26 34  2  0  0  0  0
 26 64  1  0  0  0  0
 27 34  1  0  0  0  0
 27 65  1  0  0  0  0
 28 32  1  0  0  0  0
 28 58  1  0  0  0  0
 28 59  1  0  0  0  0
 29 33  1  0  0  0  0
 29 60  1  0  0  0  0
 29 61  1  0  0  0  0
 30 35  1  0  0  0  0
 30 62  1  0  0  0  0
 30 63  1  0  0  0  0
 32 66  1  0  0  0  0
 32 67  1  0  0  0  0
 33 68  1  0  0  0  0
 33 69  1  0  0  0  0
 35 36  1  0  0  0  0
 35 70  1  0  0  0  0
 35 71  1  0  0  0  0
 36 72  1  0  0  0  0
 36 73  1  0  0  0  0
 37 38  2  0  0  0  0
 37 44  1  0  0  0  0
 38 40  1  0  0  0  0
 38 43  1  0  0  0  0
 39 41  1  0  0  0  0
 39 42  2  0  0  0  0
 40 42  1  0  0  0  0
 41 43  2  0  0  0  0
 42 74  1  0  0  0  0
 43 75  1  0  0  0  0
 44 45  2  0  0  0  0
 44 76  1  0  0  0  0
 45 77  1  0  0  0  0
 46 78  1  0  0  0  0
 46 79  1  0  0  0  0
 46 80  1  0  0  0  0
M  END
> <PUBCHEM_COMPOUND_CID>
42642645

> <PUBCHEM_COMPOUND_CANONICALIZED>
1

> <PUBCHEM_CACTVS_COMPLEXITY>
1010

> <PUBCHEM_CACTVS_HBOND_ACCEPTOR>
10

> <PUBCHEM_CACTVS_HBOND_DONOR>
2

> <PUBCHEM_CACTVS_ROTATABLE_BOND>
12

> <PUBCHEM_CACTVS_SUBSKEYS>
AAADcfB/uYAAAAAAAAAAAAAAGAAAAAAAAAA8eMECAAAAAACx9AAAHwAQAAAADgzhng4+xvPIFACoAzV3VACCiCAxIiAI2CE+7JgPJvrM8ZuHOCrm1Bna6Afw8L8OIEABAgACQABAgAIEAASAAAAAAAAAAA==

> <PUBCHEM_IUPAC_OPENEYE_NAME>
N1'-[3-fluoro-4-[[6-methoxy-7-(3-morpholinopropoxy)-4-quinolyl]oxy]phenyl]-N1-(4-fluorophenyl)cyclopropane-1,1-dicarboxamide

> <PUBCHEM_IUPAC_CAS_NAME>
N1'-[3-fluoro-4-[[6-methoxy-7-[3-(4-morpholinyl)propoxy]-4-quinolinyl]oxy]phenyl]-N1-(4-fluorophenyl)cyclopropane-1,1-dicarboxamide

> <PUBCHEM_IUPAC_NAME_MARKUP>
1-<I>N</I>&apos;-[3-fluoro-4-[6-methoxy-7-(3-morpholin-4-ylpropoxy)quinolin-4-yl]oxyphenyl]-1-<I>N</I>-(4-fluorophenyl)cyclopropane-1,1-dicarboxamide

> <PUBCHEM_IUPAC_NAME>
1-N'-[3-fluoro-4-[6-methoxy-7-(3-morpholin-4-ylpropoxy)quinolin-4-yl]oxyphenyl]-1-N-(4-fluorophenyl)cyclopropane-1,1-dicarboxamide

> <PUBCHEM_IUPAC_SYSTEMATIC_NAME>
N1'-[3-fluoranyl-4-[6-methoxy-7-(3-morpholin-4-ylpropoxy)quinolin-4-yl]oxy-phenyl]-N1-(4-fluorophenyl)cyclopropane-1,1-dicarboxamide

> <PUBCHEM_IUPAC_TRADITIONAL_NAME>
N'-[3-fluoro-4-[[6-methoxy-7-(3-morpholinopropoxy)-4-quinolyl]oxy]phenyl]-N-(4-fluorophenyl)cyclopropane-1,1-dicarboxamide

> <PUBCHEM_IUPAC_INCHI>
InChI=1S/C34H34F2N4O6/c1-43-30-20-25-27(21-31(30)45-16-2-13-40-14-17-44-18-15-40)37-12-9-28(25)46-29-8-7-24(19-26(29)36)39-33(42)34(10-11-34)32(41)38-23-5-3-22(35)4-6-23/h3-9,12,19-21H,2,10-11,13-18H2,1H3,(H,38,41)(H,39,42)

> <PUBCHEM_IUPAC_INCHIKEY>
CXQHYVUVSFXTMY-UHFFFAOYSA-N

> <PUBCHEM_XLOGP3_AA>
5.5

> <PUBCHEM_EXACT_MASS>
632.244641

> <PUBCHEM_MOLECULAR_FORMULA>
C34H34F2N4O6

> <PUBCHEM_MOLECULAR_WEIGHT>
632.7

> <PUBCHEM_OPENEYE_CAN_SMILES>
COC1=CC2=C(C=CN=C2C=C1OCCCN3CCOCC3)OC4=C(C=C(C=C4)NC(=O)C5(CC5)C(=O)NC6=CC=C(C=C6)F)F

> <PUBCHEM_OPENEYE_ISO_SMILES>
COC1=CC2=C(C=CN=C2C=C1OCCCN3CCOCC3)OC4=C(C=C(C=C4)NC(=O)C5(CC5)C(=O)NC6=CC=C(C=C6)F)F

> <PUBCHEM_CACTVS_TPSA>
111

> <PUBCHEM_MONOISOTOPIC_WEIGHT>
632.244641

> <PUBCHEM_TOTAL_CHARGE>
0

> <PUBCHEM_HEAVY_ATOM_COUNT>
46

> <PUBCHEM_ATOM_DEF_STEREO_COUNT>
0

> <PUBCHEM_ATOM_UDEF_STEREO_COUNT>
0

> <PUBCHEM_BOND_DEF_STEREO_COUNT>
0

> <PUBCHEM_BOND_UDEF_STEREO_COUNT>
0

> <PUBCHEM_ISOTOPIC_ATOM_COUNT>
0

> <PUBCHEM_COMPONENT_COUNT>
1

> <PUBCHEM_CACTVS_TAUTO_COUNT>
-1

> <PUBCHEM_COORDINATE_TYPE>
1
5
255

> <PUBCHEM_BONDANNOTATIONS>
12  40  8
12  45  8
18  20  8
18  21  8
19  22  8
19  23  8
20  24  8
21  25  8
22  26  8
23  27  8
24  31  8
25  31  8
26  34  8
27  34  8
37  38  8
37  44  8
38  40  8
38  43  8
39  41  8
39  42  8
40  42  8
41  43  8
44  45  8

$$$$
10390396
  -OEChem-02182015172D

 60 64  0     1  0  0  0  0  0999 V2000
   11.8600    3.4151    0.0000 Cl  0  0  0  0  0  0  0  0  0  0  0  0
    2.0000   -3.7811    0.0000 O   0  0  0  0  0  0  0  0  0  0  0  0
    7.8600    1.6830    0.0000 O   0  0  0  0  0  0  0  0  0  0  0  0
    8.8600   -3.5131    0.0000 O   0  0  0  0  0  0  0  0  0  0  0  0
    3.7320   -2.7811    0.0000 N   0  0  0  0  0  0  0  0  0  0  0  0
    7.2764   -0.9764    0.0000 N   0  0  0  0  0  0  0  0  0  0  0  0
    7.2764   -2.5858    0.0000 N   0  0  0  0  0  0  0  0  0  0  0  0
    8.8600   -0.0490    0.0000 N   0  0  0  0  0  0  0  0  0  0  0  0
   10.3600   -2.6471    0.0000 N   0  0  0  0  0  0  0  0  0  0  0  0
    4.5981   -2.2811    0.0000 C   0  0  0  0  0  0  0  0  0  0  0  0
    2.8660   -2.2811    0.0000 C   0  0  0  0  0  0  0  0  0  0  0  0
    3.7320   -3.7811    0.0000 C   0  0  0  0  0  0  0  0  0  0  0  0
    6.3301   -1.2811    0.0000 C   0  0  0  0  0  0  0  0  0  0  0  0
    6.3301   -2.2811    0.0000 C   0  0  0  0  0  0  0  0  0  0  0  0
    5.4641   -0.7811    0.0000 C   0  0  0  0  0  0  0  0  0  0  0  0
    5.4641   -2.7811    0.0000 C   0  0  0  0  0  0  0  0  0  0  0  0
    2.0000   -2.7811    0.0000 C   0  0  0  0  0  0  0  0  0  0  0  0
    2.8660   -4.2811    0.0000 C   0  0  0  0  0  0  0  0  0  0  0  0
    4.5981   -1.2811    0.0000 C   0  0  0  0  0  0  0  0  0  0  0  0
    7.8600   -1.7811    0.0000 C   0  0  0  0  0  0  0  0  0  0  0  0
    8.8600   -1.7811    0.0000 C   0  0  0  0  0  0  0  0  0  0  0  0
    5.4641    0.2189    0.0000 C   0  0  0  0  0  0  0  0  0  0  0  0
    9.3600   -0.9151    0.0000 C   0  0  0  0  0  0  0  0  0  0  0  0
    9.3600    0.8170    0.0000 C   0  0  0  0  0  0  0  0  0  0  0  0
    8.8600    1.6830    0.0000 C   0  0  2  0  0  0  0  0  0  0  0  0
    9.3600   -2.6471    0.0000 C   0  0  0  0  0  0  0  0  0  0  0  0
   10.3600   -0.9151    0.0000 C   0  0  0  0  0  0  0  0  0  0  0  0
    9.3600    2.5490    0.0000 C   0  0  0  0  0  0  0  0  0  0  0  0
   10.8600   -1.7811    0.0000 C   0  0  0  0  0  0  0  0  0  0  0  0
   10.3600    2.5490    0.0000 C   0  0  0  0  0  0  0  0  0  0  0  0
    8.8600    3.4151    0.0000 C   0  0  0  0  0  0  0  0  0  0  0  0
   10.8600    3.4151    0.0000 C   0  0  0  0  0  0  0  0  0  0  0  0
    9.3600    4.2811    0.0000 C   0  0  0  0  0  0  0  0  0  0  0  0
   10.3600    4.2811    0.0000 C   0  0  0  0  0  0  0  0  0  0  0  0
    3.2646   -1.8061    0.0000 H   0  0  0  0  0  0  0  0  0  0  0  0
    2.4675   -1.8061    0.0000 H   0  0  0  0  0  0  0  0  0  0  0  0
    3.9441   -4.3637    0.0000 H   0  0  0  0  0  0  0  0  0  0  0  0
    4.3426   -3.6734    0.0000 H   0  0  0  0  0  0  0  0  0  0  0  0
    5.4641   -3.4011    0.0000 H   0  0  0  0  0  0  0  0  0  0  0  0
    1.7880   -2.1985    0.0000 H   0  0  0  0  0  0  0  0  0  0  0  0
    1.3894   -2.8888    0.0000 H   0  0  0  0  0  0  0  0  0  0  0  0
    2.4675   -4.7560    0.0000 H   0  0  0  0  0  0  0  0  0  0  0  0
    3.2646   -4.7560    0.0000 H   0  0  0  0  0  0  0  0  0  0  0  0
    4.0611   -0.9711    0.0000 H   0  0  0  0  0  0  0  0  0  0  0  0
    7.4690   -0.3870    0.0000 H   0  0  0  0  0  0  0  0  0  0  0  0
    7.4690   -3.1751    0.0000 H   0  0  0  0  0  0  0  0  0  0  0  0
    6.0841    0.2189    0.0000 H   0  0  0  0  0  0  0  0  0  0  0  0
    5.4641    0.8389    0.0000 H   0  0  0  0  0  0  0  0  0  0  0  0
    4.8441    0.2189    0.0000 H   0  0  0  0  0  0  0  0  0  0  0  0
    9.8349    0.4185    0.0000 H   0  0  0  0  0  0  0  0  0  0  0  0
    9.8349    1.2155    0.0000 H   0  0  0  0  0  0  0  0  0  0  0  0
    8.2400   -0.0490    0.0000 H   0  0  0  0  0  0  0  0  0  0  0  0
    8.5500    2.2200    0.0000 H   0  0  0  0  0  0  0  0  0  0  0  0
   10.6700   -0.3781    0.0000 H   0  0  0  0  0  0  0  0  0  0  0  0
   11.4800   -1.7811    0.0000 H   0  0  0  0  0  0  0  0  0  0  0  0
   10.6700    2.0121    0.0000 H   0  0  0  0  0  0  0  0  0  0  0  0
    8.2400    3.4151    0.0000 H   0  0  0  0  0  0  0  0  0  0  0  0
    7.5500    2.2200    0.0000 H   0  0  0  0  0  0  0  0  0  0  0  0
    9.0500    4.8180    0.0000 H   0  0  0  0  0  0  0  0  0  0  0  0
   10.6700    4.8180    0.0000 H   0  0  0  0  0  0  0  0  0  0  0  0
  1 32  1  0  0  0  0
  2 17  1  0  0  0  0
  2 18  1  0  0  0  0
 25  3  1  1  0  0  0
  3 58  1  0  0  0  0
  4 26  2  0  0  0  0
  5 10  1  0  0  0  0
  5 11  1  0  0  0  0
  5 12  1  0  0  0  0
  6 13  1  0  0  0  0
  6 20  1  0  0  0  0
  6 45  1  0  0  0  0
  7 14  1  0  0  0  0
  7 20  1  0  0  0  0
  7 46  1  0  0  0  0
  8 23  1  0  0  0  0
  8 24  1  0  0  0  0
  8 52  1  0  0  0  0
  9 26  1  0  0  0  0
  9 29  2  0  0  0  0
 10 16  2  0  0  0  0
 10 19  1  0  0  0  0
 11 17  1  0  0  0  0
 11 35  1  0  0  0  0
 11 36  1  0  0  0  0
 12 18  1  0  0  0  0
 12 37  1  0  0  0  0
 12 38  1  0  0  0  0
 13 14  2  0  0  0  0
 13 15  1  0  0  0  0
 14 16  1  0  0  0  0
 15 19  2  0  0  0  0
 15 22  1  0  0  0  0
 16 39  1  0  0  0  0
 17 40  1  0  0  0  0
 17 41  1  0  0  0  0
 18 42  1  0  0  0  0
 18 43  1  0  0  0  0
 19 44  1  0  0  0  0
 20 21  2  0  0  0  0
 21 23  1  0  0  0  0
 21 26  1  0  0  0  0
 22 47  1  0  0  0  0
 22 48  1  0  0  0  0
 22 49  1  0  0  0  0
 23 27  2  0  0  0  0
 24 25  1  0  0  0  0
 24 50  1  0  0  0  0
 24 51  1  0  0  0  0
 25 28  1  0  0  0  0
 25 53  1  0  0  0  0
 27 29  1  0  0  0  0
 27 54  1  0  0  0  0
 28 30  2  0  0  0  0
 28 31  1  0  0  0  0
 29 55  1  0  0  0  0
 30 32  1  0  0  0  0
 30 56  1  0  0  0  0
 31 33  2  0  0  0  0
 31 57  1  0  0  0  0
 32 34  2  0  0  0  0
 33 34  1  0  0  0  0
 33 59  1  0  0  0  0
 34 60  1  0  0  0  0
M  END
> <PUBCHEM_COMPOUND_CID>
10390396

> <PUBCHEM_COMPOUND_CANONICALIZED>
1

> <PUBCHEM_CACTVS_COMPLEXITY>
856

> <PUBCHEM_CACTVS_HBOND_ACCEPTOR>
7

> <PUBCHEM_CACTVS_HBOND_DONOR>
4

> <PUBCHEM_CACTVS_ROTATABLE_BOND>
5

> <PUBCHEM_CACTVS_SUBSKEYS>
AAADceB7sAAEAAAAAAAAAAAAAAAAAWAAAAA8YIEAAAAAAFgBQAAAHgIQCAAADB7hmCYzwIPABgCoAjVzVACCAAAhBwAIiIEYftiKdirB09GXcAhs0APY2GeQwKAOAACAYAQCACAAAQDACAQAQAAAAAAAAA==

> <PUBCHEM_IUPAC_OPENEYE_NAME>
(3E)-4-[[(2S)-2-(3-chlorophenyl)-2-hydroxy-ethyl]amino]-3-(4-methyl-6-morpholino-1,3-dihydrobenzimidazol-2-ylidene)pyridin-2-one

> <PUBCHEM_IUPAC_CAS_NAME>
(3E)-4-[[(2S)-2-(3-chlorophenyl)-2-hydroxyethyl]amino]-3-[4-methyl-6-(4-morpholinyl)-1,3-dihydrobenzimidazol-2-ylidene]-2-pyridinone

> <PUBCHEM_IUPAC_NAME_MARKUP>
(3<I>E</I>)-4-[[(2<I>S</I>)-2-(3-chlorophenyl)-2-hydroxyethyl]amino]-3-(4-methyl-6-morpholin-4-yl-1,3-dihydrobenzimidazol-2-ylidene)pyridin-2-one

> <PUBCHEM_IUPAC_NAME>
(3E)-4-[[(2S)-2-(3-chlorophenyl)-2-hydroxyethyl]amino]-3-(4-methyl-6-morpholin-4-yl-1,3-dihydrobenzimidazol-2-ylidene)pyridin-2-one

> <PUBCHEM_IUPAC_SYSTEMATIC_NAME>
(3E)-4-[[(2S)-2-(3-chlorophenyl)-2-oxidanyl-ethyl]amino]-3-(4-methyl-6-morpholin-4-yl-1,3-dihydrobenzimidazol-2-ylidene)pyridin-2-one

> <PUBCHEM_IUPAC_TRADITIONAL_NAME>
(3E)-4-[[(2S)-2-(3-chlorophenyl)-2-hydroxy-ethyl]amino]-3-(4-methyl-6-morpholino-1,3-dihydrobenzimidazol-2-ylidene)-2-pyridone

> <PUBCHEM_IUPAC_INCHI>
InChI=1S/C25H26ClN5O3/c1-15-11-18(31-7-9-34-10-8-31)13-20-23(15)30-24(29-20)22-19(5-6-27-25(22)33)28-14-21(32)16-3-2-4-17(26)12-16/h2-6,11-13,21,28-30,32H,7-10,14H2,1H3/b24-22+/t21-/m1/s1

> <PUBCHEM_IUPAC_INCHIKEY>
UGQMURPIMYALPH-PZJQAWQVSA-N

> <PUBCHEM_XLOGP3_AA>
2.7

> <PUBCHEM_EXACT_MASS>
479.172417

> <PUBCHEM_MOLECULAR_FORMULA>
C25H26ClN5O3

> <PUBCHEM_MOLECULAR_WEIGHT>
480

> <PUBCHEM_OPENEYE_CAN_SMILES>
CC1=CC(=CC2=C1NC(=C3C(=CC=NC3=O)NCC(C4=CC(=CC=C4)Cl)O)N2)N5CCOCC5

> <PUBCHEM_OPENEYE_ISO_SMILES>
CC1=CC(=CC2=C1N/C(=C/3\C(=CC=NC3=O)NC[C@H](C4=CC(=CC=C4)Cl)O)/N2)N5CCOCC5

> <PUBCHEM_CACTVS_TPSA>
98.2

> <PUBCHEM_MONOISOTOPIC_WEIGHT>
479.172417

> <PUBCHEM_TOTAL_CHARGE>
0

> <PUBCHEM_HEAVY_ATOM_COUNT>
34

> <PUBCHEM_ATOM_DEF_STEREO_COUNT>
1

> <PUBCHEM_ATOM_UDEF_STEREO_COUNT>
0

> <PUBCHEM_BOND_DEF_STEREO_COUNT>
1

> <PUBCHEM_BOND_UDEF_STEREO_COUNT>
0

> <PUBCHEM_ISOTOPIC_ATOM_COUNT>
0

> <PUBCHEM_COMPONENT_COUNT>
1

> <PUBCHEM_CACTVS_TAUTO_COUNT>
-1

> <PUBCHEM_COORDINATE_TYPE>
1
5
255

> <PUBCHEM_BONDANNOTATIONS>
10  16  8
10  19  8
13  14  8
13  15  8
14  16  8
15  19  8
28  30  8
28  31  8
25  3  5
30  32  8
31  33  8
32  34  8
33  34  8

$$$$
25124816
  -OEChem-02182015172D

108115  0     0  0  0  0  0  0999 V2000
    7.0705    8.9726    0.0000 S   0  0  0  0  0  0  0  0  0  0  0  0
    6.7619   -9.0571    0.0000 F   0  0  0  0  0  0  0  0  0  0  0  0
    9.7619   -7.3250    0.0000 F   0  0  0  0  0  0  0  0  0  0  0  0
    6.1200    9.2833    0.0000 O   0  0  0  0  0  0  0  0  0  0  0  0
    8.0210    8.6619    0.0000 O   0  0  0  0  0  0  0  0  0  0  0  0
    5.9209   -0.1202    0.0000 O   0  0  0  0  0  0  0  0  0  0  0  0
    9.2619   -4.7270    0.0000 O   0  0  0  0  0  0  0  0  0  0  0  0
    9.2619   -6.4590    0.0000 O   0  0  0  0  0  0  0  0  0  0  0  0
    6.1385    6.1210    0.0000 N   0  0  0  0  0  0  0  0  0  0  0  0
    5.2066    3.2695    0.0000 N   0  0  0  0  0  0  0  0  0  0  0  0
    6.7599    8.0221    0.0000 N   0  0  0  0  0  0  0  0  0  0  0  0
    3.9639   -0.5326    0.0000 N   0  0  0  0  0  0  0  0  0  0  0  0
    4.3211   -2.2274    0.0000 N   0  0  0  0  0  0  0  0  0  0  0  0
    5.6103   -1.0707    0.0000 N   0  0  0  0  0  0  0  0  0  0  0  0
    3.7320   -4.2270    0.0000 N   0  0  0  0  0  0  0  0  0  0  0  0
    4.6783   -5.5317    0.0000 N   0  0  0  0  0  0  0  0  0  0  0  0
    7.7619   -7.3250    0.0000 N   0  0  0  0  0  0  0  0  0  0  0  0
    5.8279    5.1705    0.0000 C   0  0  0  0  0  0  0  0  0  0  0  0
    4.8494    4.9643    0.0000 C   0  0  0  0  0  0  0  0  0  0  0  0
    6.4957    4.4262    0.0000 C   0  0  0  0  0  0  0  0  0  0  0  0
    4.5387    4.0138    0.0000 C   0  0  0  0  0  0  0  0  0  0  0  0
    6.1851    3.4757    0.0000 C   0  0  0  0  0  0  0  0  0  0  0  0
    5.4707    6.8654    0.0000 C   0  0  0  0  0  0  0  0  0  0  0  0
    7.1170    6.3273    0.0000 C   0  0  0  0  0  0  0  0  0  0  0  0
    5.7814    7.8159    0.0000 C   0  0  0  0  0  0  0  0  0  0  0  0
    7.4277    7.2778    0.0000 C   0  0  0  0  0  0  0  0  0  0  0  0
    4.8959    2.3190    0.0000 C   0  0  0  0  0  0  0  0  0  0  0  0
    3.9174    2.1127    0.0000 C   0  0  0  0  0  0  0  0  0  0  0  0
    5.5637    1.5747    0.0000 C   0  0  0  0  0  0  0  0  0  0  0  0
    7.3812    9.9231    0.0000 C   0  0  0  0  0  0  0  0  0  0  0  0
    3.2496    2.8570    0.0000 C   0  0  0  0  0  0  0  0  0  0  0  0
    3.6067    1.1622    0.0000 C   0  0  0  0  0  0  0  0  0  0  0  0
    5.2531    0.6241    0.0000 C   0  0  0  0  0  0  0  0  0  0  0  0
    4.2746    0.4179    0.0000 C   0  0  0  0  0  0  0  0  0  0  0  0
    2.2710    2.6508    0.0000 C   0  0  0  0  0  0  0  0  0  0  0  0
    4.6318   -1.2769    0.0000 C   0  0  0  0  0  0  0  0  0  0  0  0
    6.8994    0.0861    0.0000 C   0  0  0  0  0  0  0  0  0  0  0  0
    4.9889   -2.9717    0.0000 C   0  0  0  0  0  0  0  0  0  0  0  0
    4.6783   -3.9222    0.0000 C   0  0  0  0  0  0  0  0  0  0  0  0
    6.2781   -1.8150    0.0000 C   0  0  0  0  0  0  0  0  0  0  0  0
    5.9674   -2.7655    0.0000 C   0  0  0  0  0  0  0  0  0  0  0  0
    5.2619   -4.7270    0.0000 C   0  0  0  0  0  0  0  0  0  0  0  0
    3.7320   -5.2270    0.0000 C   0  0  0  0  0  0  0  0  0  0  0  0
    6.2619   -4.7270    0.0000 C   0  0  0  0  0  0  0  0  0  0  0  0
    2.8660   -3.7270    0.0000 C   0  0  0  0  0  0  0  0  0  0  0  0
    2.8660   -5.7270    0.0000 C   0  0  0  0  0  0  0  0  0  0  0  0
    6.7619   -5.5930    0.0000 C   0  0  0  0  0  0  0  0  0  0  0  0
    6.7619   -3.8610    0.0000 C   0  0  0  0  0  0  0  0  0  0  0  0
    2.0000   -4.2270    0.0000 C   0  0  0  0  0  0  0  0  0  0  0  0
    2.0000   -5.2270    0.0000 C   0  0  0  0  0  0  0  0  0  0  0  0
    7.7619   -5.5930    0.0000 C   0  0  0  0  0  0  0  0  0  0  0  0
    7.7619   -3.8610    0.0000 C   0  0  0  0  0  0  0  0  0  0  0  0
    8.2619   -4.7270    0.0000 C   0  0  0  0  0  0  0  0  0  0  0  0
    8.2619   -6.4590    0.0000 C   0  0  0  0  0  0  0  0  0  0  0  0
    8.2619   -8.1911    0.0000 C   0  0  0  0  0  0  0  0  0  0  0  0
    9.7619   -3.8610    0.0000 C   0  0  0  0  0  0  0  0  0  0  0  0
    7.7619   -9.0571    0.0000 C   0  0  0  0  0  0  0  0  0  0  0  0
    9.2619   -8.1911    0.0000 C   0  0  0  0  0  0  0  0  0  0  0  0
    8.2619   -9.9231    0.0000 C   0  0  0  0  0  0  0  0  0  0  0  0
    9.7619   -9.0571    0.0000 C   0  0  0  0  0  0  0  0  0  0  0  0
    9.2619   -9.9231    0.0000 C   0  0  0  0  0  0  0  0  0  0  0  0
    5.4138    5.6320    0.0000 H   0  0  0  0  0  0  0  0  0  0  0  0
    4.8288    5.5840    0.0000 H   0  0  0  0  0  0  0  0  0  0  0  0
    4.2356    5.0517    0.0000 H   0  0  0  0  0  0  0  0  0  0  0  0
    7.0426    4.1342    0.0000 H   0  0  0  0  0  0  0  0  0  0  0  0
    6.8783    4.9141    0.0000 H   0  0  0  0  0  0  0  0  0  0  0  0
    3.9918    4.3058    0.0000 H   0  0  0  0  0  0  0  0  0  0  0  0
    4.1562    3.5259    0.0000 H   0  0  0  0  0  0  0  0  0  0  0  0
    6.2056    2.8560    0.0000 H   0  0  0  0  0  0  0  0  0  0  0  0
    6.7989    3.3884    0.0000 H   0  0  0  0  0  0  0  0  0  0  0  0
    4.9238    7.1574    0.0000 H   0  0  0  0  0  0  0  0  0  0  0  0
    5.0882    6.3774    0.0000 H   0  0  0  0  0  0  0  0  0  0  0  0
    7.1376    5.7076    0.0000 H   0  0  0  0  0  0  0  0  0  0  0  0
    7.7309    6.2399    0.0000 H   0  0  0  0  0  0  0  0  0  0  0  0
    5.7608    8.4355    0.0000 H   0  0  0  0  0  0  0  0  0  0  0  0
    5.1676    7.9032    0.0000 H   0  0  0  0  0  0  0  0  0  0  0  0
    7.9746    6.9858    0.0000 H   0  0  0  0  0  0  0  0  0  0  0  0
    7.8103    7.7657    0.0000 H   0  0  0  0  0  0  0  0  0  0  0  0
    6.1704    1.7025    0.0000 H   0  0  0  0  0  0  0  0  0  0  0  0
    7.9705    9.7305    0.0000 H   0  0  0  0  0  0  0  0  0  0  0  0
    7.5738   10.5124    0.0000 H   0  0  0  0  0  0  0  0  0  0  0  0
    6.7919   10.1157    0.0000 H   0  0  0  0  0  0  0  0  0  0  0  0
    3.7759    3.1847    0.0000 H   0  0  0  0  0  0  0  0  0  0  0  0
    3.0183    3.4323    0.0000 H   0  0  0  0  0  0  0  0  0  0  0  0
    3.0000    1.0344    0.0000 H   0  0  0  0  0  0  0  0  0  0  0  0
    2.1432    3.2575    0.0000 H   0  0  0  0  0  0  0  0  0  0  0  0
    1.6644    2.5230    0.0000 H   0  0  0  0  0  0  0  0  0  0  0  0
    2.3989    2.0442    0.0000 H   0  0  0  0  0  0  0  0  0  0  0  0
    3.3572   -0.6605    0.0000 H   0  0  0  0  0  0  0  0  0  0  0  0
    7.0273   -0.5206    0.0000 H   0  0  0  0  0  0  0  0  0  0  0  0
    7.5061    0.2139    0.0000 H   0  0  0  0  0  0  0  0  0  0  0  0
    6.7716    0.6927    0.0000 H   0  0  0  0  0  0  0  0  0  0  0  0
    6.8848   -1.6871    0.0000 H   0  0  0  0  0  0  0  0  0  0  0  0
    6.3815   -3.2270    0.0000 H   0  0  0  0  0  0  0  0  0  0  0  0
    2.8660   -3.1070    0.0000 H   0  0  0  0  0  0  0  0  0  0  0  0
    2.8660   -6.3470    0.0000 H   0  0  0  0  0  0  0  0  0  0  0  0
    6.4519   -6.1299    0.0000 H   0  0  0  0  0  0  0  0  0  0  0  0
    6.4519   -3.3240    0.0000 H   0  0  0  0  0  0  0  0  0  0  0  0
    1.4631   -3.9170    0.0000 H   0  0  0  0  0  0  0  0  0  0  0  0
    1.4631   -5.5370    0.0000 H   0  0  0  0  0  0  0  0  0  0  0  0
    8.0719   -3.3240    0.0000 H   0  0  0  0  0  0  0  0  0  0  0  0
    7.1419   -7.3250    0.0000 H   0  0  0  0  0  0  0  0  0  0  0  0
   10.2988   -4.1710    0.0000 H   0  0  0  0  0  0  0  0  0  0  0  0
   10.0719   -3.3240    0.0000 H   0  0  0  0  0  0  0  0  0  0  0  0
    9.2249   -3.5510    0.0000 H   0  0  0  0  0  0  0  0  0  0  0  0
    7.9519  -10.4601    0.0000 H   0  0  0  0  0  0  0  0  0  0  0  0
   10.3819   -9.0571    0.0000 H   0  0  0  0  0  0  0  0  0  0  0  0
    9.5719  -10.4601    0.0000 H   0  0  0  0  0  0  0  0  0  0  0  0
  1  4  2  0  0  0  0
  1  5  2  0  0  0  0
  1 11  1  0  0  0  0
  1 30  1  0  0  0  0
  2 57  1  0  0  0  0
  3 58  1  0  0  0  0
  6 33  1  0  0  0  0
  6 37  1  0  0  0  0
  7 53  1  0  0  0  0
  7 56  1  0  0  0  0
  8 54  2  0  0  0  0
  9 18  1  0  0  0  0
  9 23  1  0  0  0  0
  9 24  1  0  0  0  0
 10 21  1  0  0  0  0
 10 22  1  0  0  0  0
 10 27  1  0  0  0  0
 11 25  1  0  0  0  0
 11 26  1  0  0  0  0
 12 34  1  0  0  0  0
 12 36  1  0  0  0  0
 12 89  1  0  0  0  0
 13 36  1  0  0  0  0
 13 38  2  0  0  0  0
 14 36  2  0  0  0  0
 14 40  1  0  0  0  0
 15 39  1  0  0  0  0
 15 43  1  0  0  0  0
 15 45  1  0  0  0  0
 16 42  1  0  0  0  0
 16 43  2  0  0  0  0
 17 54  1  0  0  0  0
 17 55  1  0  0  0  0
 17102  1  0  0  0  0
 18 19  1  0  0  0  0
 18 20  1  0  0  0  0
 18 62  1  0  0  0  0
 19 21  1  0  0  0  0
 19 63  1  0  0  0  0
 19 64  1  0  0  0  0
 20 22  1  0  0  0  0
 20 65  1  0  0  0  0
 20 66  1  0  0  0  0
 21 67  1  0  0  0  0
 21 68  1  0  0  0  0
 22 69  1  0  0  0  0
 22 70  1  0  0  0  0
 23 25  1  0  0  0  0
 23 71  1  0  0  0  0
 23 72  1  0  0  0  0
 24 26  1  0  0  0  0
 24 73  1  0  0  0  0
 24 74  1  0  0  0  0
 25 75  1  0  0  0  0
 25 76  1  0  0  0  0
 26 77  1  0  0  0  0
 26 78  1  0  0  0  0
 27 28  1  0  0  0  0
 27 29  2  0  0  0  0
 28 31  1  0  0  0  0
 28 32  2  0  0  0  0
 29 33  1  0  0  0  0
 29 79  1  0  0  0  0
 30 80  1  0  0  0  0
 30 81  1  0  0  0  0
 30 82  1  0  0  0  0
 31 35  1  0  0  0  0
 31 83  1  0  0  0  0
 31 84  1  0  0  0  0
 32 34  1  0  0  0  0
 32 85  1  0  0  0  0
 33 34  2  0  0  0  0
 35 86  1  0  0  0  0
 35 87  1  0  0  0  0
 35 88  1  0  0  0  0
 37 90  1  0  0  0  0
 37 91  1  0  0  0  0
 37 92  1  0  0  0  0
 38 39  1  0  0  0  0
 38 41  1  0  0  0  0
 39 42  2  0  0  0  0
 40 41  2  0  0  0  0
 40 93  1  0  0  0  0
 41 94  1  0  0  0  0
 42 44  1  0  0  0  0
 43 46  1  0  0  0  0
 44 47  2  0  0  0  0
 44 48  1  0  0  0  0
 45 49  2  0  0  0  0
 45 95  1  0  0  0  0
 46 50  2  0  0  0  0
 46 96  1  0  0  0  0
 47 51  1  0  0  0  0
 47 97  1  0  0  0  0
 48 52  2  0  0  0  0
 48 98  1  0  0  0  0
 49 50  1  0  0  0  0
 49 99  1  0  0  0  0
 50100  1  0  0  0  0
 51 53  2  0  0  0  0
 51 54  1  0  0  0  0
 52 53  1  0  0  0  0
 52101  1  0  0  0  0
 55 57  2  0  0  0  0
 55 58  1  0  0  0  0
 56103  1  0  0  0  0
 56104  1  0  0  0  0
 56105  1  0  0  0  0
 57 59  1  0  0  0  0
 58 60  2  0  0  0  0
 59 61  2  0  0  0  0
 59106  1  0  0  0  0
 60 61  1  0  0  0  0
 60107  1  0  0  0  0
 61108  1  0  0  0  0
M  END
> <PUBCHEM_COMPOUND_CID>
25124816

> <PUBCHEM_COMPOUND_CANONICALIZED>
1

> <PUBCHEM_CACTVS_COMPLEXITY>
1530

> <PUBCHEM_CACTVS_HBOND_ACCEPTOR>
14

> <PUBCHEM_CACTVS_HBOND_DONOR>
2

> <PUBCHEM_CACTVS_ROTATABLE_BOND>
12

> <PUBCHEM_CACTVS_SUBSKEYS>
AAADcfB/+YBAAAAAAAAAAAAAAAAAAWAAAAA8ePFiAAAAAFgB/AAAHwQQQAAADCzBnw6/9p/MHAKoAzd3dHCCiC01MqAJ2CE/fNiObvbE/duVNWhu9BvY6aeY2eOeIACCQgAKEABAAQSEABQgAAAAAAAAAA==

> <PUBCHEM_IUPAC_OPENEYE_NAME>
N-(2,6-difluorophenyl)-5-[3-[2-[5-ethyl-2-methoxy-4-[4-(4-methylsulfonylpiperazin-1-yl)-1-piperidyl]anilino]pyrimidin-4-yl]imidazo[1,2-a]pyridin-2-yl]-2-methoxy-benzamide

> <PUBCHEM_IUPAC_CAS_NAME>
N-(2,6-difluorophenyl)-5-[3-[2-[5-ethyl-2-methoxy-4-[4-(4-methylsulfonyl-1-piperazinyl)-1-piperidinyl]anilino]-4-pyrimidinyl]-2-imidazo[1,2-a]pyridinyl]-2-methoxybenzamide

> <PUBCHEM_IUPAC_NAME_MARKUP>
<I>N</I>-(2,6-difluorophenyl)-5-[3-[2-[5-ethyl-2-methoxy-4-[4-(4-methylsulfonylpiperazin-1-yl)piperidin-1-yl]anilino]pyrimidin-4-yl]imidazo[1,2-a]pyridin-2-yl]-2-methoxybenzamide

> <PUBCHEM_IUPAC_NAME>
N-(2,6-difluorophenyl)-5-[3-[2-[5-ethyl-2-methoxy-4-[4-(4-methylsulfonylpiperazin-1-yl)piperidin-1-yl]anilino]pyrimidin-4-yl]imidazo[1,2-a]pyridin-2-yl]-2-methoxybenzamide

> <PUBCHEM_IUPAC_SYSTEMATIC_NAME>
N-[2,6-bis(fluoranyl)phenyl]-5-[3-[2-[[5-ethyl-2-methoxy-4-[4-(4-methylsulfonylpiperazin-1-yl)piperidin-1-yl]phenyl]amino]pyrimidin-4-yl]imidazo[1,2-a]pyridin-2-yl]-2-methoxy-benzamide

> <PUBCHEM_IUPAC_TRADITIONAL_NAME>
N-(2,6-difluorophenyl)-5-[3-[2-[5-ethyl-4-[4-(4-mesylpiperazino)piperidino]-2-methoxy-anilino]pyrimidin-4-yl]imidazo[1,2-a]pyridin-2-yl]-2-methoxy-benzamide

> <PUBCHEM_IUPAC_INCHI>
InChI=1S/C44H47F2N9O5S/c1-5-28-26-35(38(60-3)27-36(28)53-19-15-30(16-20-53)52-21-23-54(24-22-52)61(4,57)58)49-44-47-17-14-34(48-44)42-40(50-39-11-6-7-18-55(39)42)29-12-13-37(59-2)31(25-29)43(56)51-41-32(45)9-8-10-33(41)46/h6-14,17-18,25-27,30H,5,15-16,19-24H2,1-4H3,(H,51,56)(H,47,48,49)

> <PUBCHEM_IUPAC_INCHIKEY>
MOSKATHMXWSZTQ-UHFFFAOYSA-N

> <PUBCHEM_XLOGP3_AA>
6.8

> <PUBCHEM_EXACT_MASS>
851.338893

> <PUBCHEM_MOLECULAR_FORMULA>
C44H47F2N9O5S

> <PUBCHEM_MOLECULAR_WEIGHT>
852

> <PUBCHEM_OPENEYE_CAN_SMILES>
CCC1=CC(=C(C=C1N2CCC(CC2)N3CCN(CC3)S(=O)(=O)C)OC)NC4=NC=CC(=N4)C5=C(N=C6N5C=CC=C6)C7=CC(=C(C=C7)OC)C(=O)NC8=C(C=CC=C8F)F

> <PUBCHEM_OPENEYE_ISO_SMILES>
CCC1=CC(=C(C=C1N2CCC(CC2)N3CCN(CC3)S(=O)(=O)C)OC)NC4=NC=CC(=N4)C5=C(N=C6N5C=CC=C6)C7=CC(=C(C=C7)OC)C(=O)NC8=C(C=CC=C8F)F

> <PUBCHEM_CACTVS_TPSA>
155

> <PUBCHEM_MONOISOTOPIC_WEIGHT>
851.338893

> <PUBCHEM_TOTAL_CHARGE>
0

> <PUBCHEM_HEAVY_ATOM_COUNT>
61

> <PUBCHEM_ATOM_DEF_STEREO_COUNT>
0

> <PUBCHEM_ATOM_UDEF_STEREO_COUNT>
0

> <PUBCHEM_BOND_DEF_STEREO_COUNT>
0

> <PUBCHEM_BOND_UDEF_STEREO_COUNT>
0

> <PUBCHEM_ISOTOPIC_ATOM_COUNT>
0

> <PUBCHEM_COMPONENT_COUNT>
1

> <PUBCHEM_CACTVS_TAUTO_COUNT>
-1

> <PUBCHEM_COORDINATE_TYPE>
1
5
255

> <PUBCHEM_BONDANNOTATIONS>
13  36  8
13  38  8
14  36  8
14  40  8
15  39  8
15  43  8
15  45  8
16  42  8
16  43  8
27  28  8
27  29  8
28  32  8
29  33  8
32  34  8
33  34  8
38  41  8
39  42  8
40  41  8
43  46  8
44  47  8
44  48  8
45  49  8
46  50  8
47  51  8
48  52  8
49  50  8
51  53  8
52  53  8
55  57  8
55  58  8
57  59  8
58  60  8
59  61  8
60  61  8

$$$$
2907
  -OEChem-02182015172D

 29 29  0     1  0  0  0  0  0999 V2000
    5.0000   -2.7320    0.0000 Cl  0  0  0  0  0  0  0  0  0  0  0  0
    2.0000   -1.0000    0.0000 Cl  0  0  0  0  0  0  0  0  0  0  0  0
    5.0000    0.7321    0.0000 P   0  0  3  0  0  0  0  0  0  0  0  0
    5.8660    1.2320    0.0000 O   0  0  0  0  0  0  0  0  0  0  0  0
    5.5000   -0.1340    0.0000 O   0  0  0  0  0  0  0  0  0  0  0  0
    4.5000   -0.1340    0.0000 N   0  0  0  0  0  0  0  0  0  0  0  0
    4.1340    1.2320    0.0000 N   0  0  0  0  0  0  0  0  0  0  0  0
    4.1340    2.2320    0.0000 C   0  0  0  0  0  0  0  0  0  0  0  0
    5.0000    2.7320    0.0000 C   0  0  0  0  0  0  0  0  0  0  0  0
    5.8660    2.2320    0.0000 C   0  0  0  0  0  0  0  0  0  0  0  0
    5.0000   -1.0000    0.0000 C   0  0  0  0  0  0  0  0  0  0  0  0
    3.5000   -0.1340    0.0000 C   0  0  0  0  0  0  0  0  0  0  0  0
    4.5000   -1.8660    0.0000 C   0  0  0  0  0  0  0  0  0  0  0  0
    3.0000   -1.0000    0.0000 C   0  0  0  0  0  0  0  0  0  0  0  0
    3.9219    2.8147    0.0000 H   0  0  0  0  0  0  0  0  0  0  0  0
    3.5234    2.1244    0.0000 H   0  0  0  0  0  0  0  0  0  0  0  0
    5.3985    3.2070    0.0000 H   0  0  0  0  0  0  0  0  0  0  0  0
    4.6015    3.2070    0.0000 H   0  0  0  0  0  0  0  0  0  0  0  0
    3.5970    0.9221    0.0000 H   0  0  0  0  0  0  0  0  0  0  0  0
    6.4766    2.1244    0.0000 H   0  0  0  0  0  0  0  0  0  0  0  0
    6.0781    2.8147    0.0000 H   0  0  0  0  0  0  0  0  0  0  0  0
    5.4750   -1.3985    0.0000 H   0  0  0  0  0  0  0  0  0  0  0  0
    5.4750   -0.6015    0.0000 H   0  0  0  0  0  0  0  0  0  0  0  0
    3.6077    0.4766    0.0000 H   0  0  0  0  0  0  0  0  0  0  0  0
    2.9174    0.0781    0.0000 H   0  0  0  0  0  0  0  0  0  0  0  0
    4.0250   -1.4675    0.0000 H   0  0  0  0  0  0  0  0  0  0  0  0
    4.0250   -2.2646    0.0000 H   0  0  0  0  0  0  0  0  0  0  0  0
    2.8923   -1.6106    0.0000 H   0  0  0  0  0  0  0  0  0  0  0  0
    3.5826   -1.2120    0.0000 H   0  0  0  0  0  0  0  0  0  0  0  0
  1 13  1  0  0  0  0
  2 14  1  0  0  0  0
  3  4  1  0  0  0  0
  3  5  2  0  0  0  0
  3  6  1  0  0  0  0
  3  7  1  0  0  0  0
  4 10  1  0  0  0  0
  6 11  1  0  0  0  0
  6 12  1  0  0  0  0
  7  8  1  0  0  0  0
  7 19  1  0  0  0  0
  8  9  1  0  0  0  0
  8 15  1  0  0  0  0
  8 16  1  0  0  0  0
  9 10  1  0  0  0  0
  9 17  1  0  0  0  0
  9 18  1  0  0  0  0
 10 20  1  0  0  0  0
 10 21  1  0  0  0  0
 11 13  1  0  0  0  0
 11 22  1  0  0  0  0
 11 23  1  0  0  0  0
 12 14  1  0  0  0  0
 12 24  1  0  0  0  0
 12 25  1  0  0  0  0
 13 26  1  0  0  0  0
 13 27  1  0  0  0  0
 14 28  1  0  0  0  0
 14 29  1  0  0  0  0
M  END
> <PUBCHEM_COMPOUND_CID>
2907

> <PUBCHEM_COMPOUND_CANONICALIZED>
1

> <PUBCHEM_CACTVS_COMPLEXITY>
212

> <PUBCHEM_CACTVS_HBOND_ACCEPTOR>
4

> <PUBCHEM_CACTVS_HBOND_DONOR>
1

> <PUBCHEM_CACTVS_ROTATABLE_BOND>
5

> <PUBCHEM_CACTVS_SUBSKEYS>
AAADccBjMAIGAAAAAAAAAAAAAAAAAAAAAAAsAAAAAAAAAAAAAAAAHgIQgCAACAPhgEYAAAJAARAAQAAAAIAAAAAAAAAAAIAIAAAAAAAAAABAAAACEACAAAAAAAAAAAAAAAAAAAAAAAAAAAAAAAAAAAAAAA==

> <PUBCHEM_IUPAC_OPENEYE_NAME>
N,N-bis(2-chloroethyl)-2-oxo-1,3,2lambda5-oxazaphosphinan-2-amine

> <PUBCHEM_IUPAC_CAS_NAME>
N,N-bis(2-chloroethyl)-2-oxo-1,3,2lambda5-oxazaphosphorinan-2-amine

> <PUBCHEM_IUPAC_NAME_MARKUP>
<I>N</I>,<I>N</I>-bis(2-chloroethyl)-2-oxo-1,3,2&lambda;<SUP>5</SUP>-oxazaphosphinan-2-amine

> <PUBCHEM_IUPAC_NAME>
N,N-bis(2-chloroethyl)-2-oxo-1,3,2lambda5-oxazaphosphinan-2-amine

> <PUBCHEM_IUPAC_SYSTEMATIC_NAME>
N,N-bis(2-chloroethyl)-2-oxidanylidene-1,3,2lambda5-oxazaphosphinan-2-amine

> <PUBCHEM_IUPAC_TRADITIONAL_NAME>
bis(2-chloroethyl)-(2-keto-1,3,2lambda5-oxazaphosphorinan-2-yl)amine

> <PUBCHEM_IUPAC_INCHI>
InChI=1S/C7H15Cl2N2O2P/c8-2-5-11(6-3-9)14(12)10-4-1-7-13-14/h1-7H2,(H,10,12)

> <PUBCHEM_IUPAC_INCHIKEY>
CMSMOCZEIVJLDB-UHFFFAOYSA-N

> <PUBCHEM_XLOGP3>
0.6

> <PUBCHEM_EXACT_MASS>
260.02482

> <PUBCHEM_MOLECULAR_FORMULA>
C7H15Cl2N2O2P

> <PUBCHEM_MOLECULAR_WEIGHT>
261.08

> <PUBCHEM_OPENEYE_CAN_SMILES>
C1CNP(=O)(OC1)N(CCCl)CCCl

> <PUBCHEM_OPENEYE_ISO_SMILES>
C1CNP(=O)(OC1)N(CCCl)CCCl

> <PUBCHEM_CACTVS_TPSA>
41.6

> <PUBCHEM_MONOISOTOPIC_WEIGHT>
260.02482

> <PUBCHEM_TOTAL_CHARGE>
0

> <PUBCHEM_HEAVY_ATOM_COUNT>
14

> <PUBCHEM_ATOM_DEF_STEREO_COUNT>
0

> <PUBCHEM_ATOM_UDEF_STEREO_COUNT>
1

> <PUBCHEM_BOND_DEF_STEREO_COUNT>
0

> <PUBCHEM_BOND_UDEF_STEREO_COUNT>
0

> <PUBCHEM_ISOTOPIC_ATOM_COUNT>
0

> <PUBCHEM_COMPONENT_COUNT>
1

> <PUBCHEM_CACTVS_TAUTO_COUNT>
-1

> <PUBCHEM_COORDINATE_TYPE>
1
5
255

> <PUBCHEM_BONDANNOTATIONS>
3  6  3

$$$$
10385095
  -OEChem-02182015172D

 44 46  0     0  0  0  0  0  0999 V2000
    6.8671    4.4050    0.0000 O   0  0  0  0  0  0  0  0  0  0  0  0
    2.5369   -3.0950    0.0000 O   0  0  0  0  0  0  0  0  0  0  0  0
    6.0010    2.9050    0.0000 O   0  0  0  0  0  0  0  0  0  0  0  0
    3.4030   -1.5950    0.0000 O   0  0  0  0  0  0  0  0  0  0  0  0
    8.5991    5.4050    0.0000 O   0  0  0  0  0  0  0  0  0  0  0  0
    2.5369   -5.0950    0.0000 O   0  0  0  0  0  0  0  0  0  0  0  0
    6.8671    1.4050    0.0000 N   0  0  0  0  0  0  0  0  0  0  0  0
    5.1350   -1.5950    0.0000 N   0  0  0  0  0  0  0  0  0  0  0  0
    6.0010    0.9050    0.0000 C   0  0  0  0  0  0  0  0  0  0  0  0
    5.1350   -0.5950    0.0000 C   0  0  0  0  0  0  0  0  0  0  0  0
    6.0010   -0.0950    0.0000 C   0  0  0  0  0  0  0  0  0  0  0  0
    7.7331    2.9050    0.0000 C   0  0  0  0  0  0  0  0  0  0  0  0
    4.2690   -3.0950    0.0000 C   0  0  0  0  0  0  0  0  0  0  0  0
    5.1350    1.4050    0.0000 C   0  0  0  0  0  0  0  0  0  0  0  0
    4.2690   -0.0950    0.0000 C   0  0  0  0  0  0  0  0  0  0  0  0
    6.8671    2.4050    0.0000 C   0  0  0  0  0  0  0  0  0  0  0  0
    4.2690   -2.0950    0.0000 C   0  0  0  0  0  0  0  0  0  0  0  0
    4.2690    0.9050    0.0000 C   0  0  0  0  0  0  0  0  0  0  0  0
    7.7331    3.9050    0.0000 C   0  0  0  0  0  0  0  0  0  0  0  0
    3.4030   -3.5950    0.0000 C   0  0  0  0  0  0  0  0  0  0  0  0
    8.5991    2.4050    0.0000 C   0  0  0  0  0  0  0  0  0  0  0  0
    5.1350   -3.5950    0.0000 C   0  0  0  0  0  0  0  0  0  0  0  0
    8.5991    4.4050    0.0000 C   0  0  0  0  0  0  0  0  0  0  0  0
    3.4030   -4.5950    0.0000 C   0  0  0  0  0  0  0  0  0  0  0  0
    9.4651    2.9050    0.0000 C   0  0  0  0  0  0  0  0  0  0  0  0
    5.1350   -4.5950    0.0000 C   0  0  0  0  0  0  0  0  0  0  0  0
    9.4651    3.9050    0.0000 C   0  0  0  0  0  0  0  0  0  0  0  0
    4.2690   -5.0950    0.0000 C   0  0  0  0  0  0  0  0  0  0  0  0
    6.5380   -0.4050    0.0000 H   0  0  0  0  0  0  0  0  0  0  0  0
    7.4040    1.0950    0.0000 H   0  0  0  0  0  0  0  0  0  0  0  0
    5.6720   -1.9050    0.0000 H   0  0  0  0  0  0  0  0  0  0  0  0
    5.1350    2.0250    0.0000 H   0  0  0  0  0  0  0  0  0  0  0  0
    3.7320   -0.4050    0.0000 H   0  0  0  0  0  0  0  0  0  0  0  0
    3.7320    1.2150    0.0000 H   0  0  0  0  0  0  0  0  0  0  0  0
    8.5991    1.7850    0.0000 H   0  0  0  0  0  0  0  0  0  0  0  0
    5.6720   -3.2850    0.0000 H   0  0  0  0  0  0  0  0  0  0  0  0
   10.0021    2.5950    0.0000 H   0  0  0  0  0  0  0  0  0  0  0  0
    5.6720   -4.9050    0.0000 H   0  0  0  0  0  0  0  0  0  0  0  0
   10.0021    4.2150    0.0000 H   0  0  0  0  0  0  0  0  0  0  0  0
    4.2690   -5.7150    0.0000 H   0  0  0  0  0  0  0  0  0  0  0  0
    6.8671    5.0250    0.0000 H   0  0  0  0  0  0  0  0  0  0  0  0
    2.0000   -3.4050    0.0000 H   0  0  0  0  0  0  0  0  0  0  0  0
    9.1360    5.7150    0.0000 H   0  0  0  0  0  0  0  0  0  0  0  0
    2.5369   -5.7150    0.0000 H   0  0  0  0  0  0  0  0  0  0  0  0
  1 19  1  0  0  0  0
  1 41  1  0  0  0  0
  2 20  1  0  0  0  0
  2 42  1  0  0  0  0
  3 16  2  0  0  0  0
  4 17  2  0  0  0  0
  5 23  1  0  0  0  0
  5 43  1  0  0  0  0
  6 24  1  0  0  0  0
  6 44  1  0  0  0  0
  7  9  1  0  0  0  0
  7 16  1  0  0  0  0
  7 30  1  0  0  0  0
  8 10  1  0  0  0  0
  8 17  1  0  0  0  0
  8 31  1  0  0  0  0
  9 11  2  0  0  0  0
  9 14  1  0  0  0  0
 10 11  1  0  0  0  0
 10 15  2  0  0  0  0
 11 29  1  0  0  0  0
 12 16  1  0  0  0  0
 12 19  2  0  0  0  0
 12 21  1  0  0  0  0
 13 17  1  0  0  0  0
 13 20  2  0  0  0  0
 13 22  1  0  0  0  0
 14 18  2  0  0  0  0
 14 32  1  0  0  0  0
 15 18  1  0  0  0  0
 15 33  1  0  0  0  0
 18 34  1  0  0  0  0
 19 23  1  0  0  0  0
 20 24  1  0  0  0  0
 21 25  2  0  0  0  0
 21 35  1  0  0  0  0
 22 26  2  0  0  0  0
 22 36  1  0  0  0  0
 23 27  2  0  0  0  0
 24 28  2  0  0  0  0
 25 27  1  0  0  0  0
 25 37  1  0  0  0  0
 26 28  1  0  0  0  0
 26 38  1  0  0  0  0
 27 39  1  0  0  0  0
 28 40  1  0  0  0  0
M  END
> <PUBCHEM_COMPOUND_CID>
10385095

> <PUBCHEM_COMPOUND_CANONICALIZED>
1

> <PUBCHEM_CACTVS_COMPLEXITY>
513

> <PUBCHEM_CACTVS_HBOND_ACCEPTOR>
6

> <PUBCHEM_CACTVS_HBOND_DONOR>
6

> <PUBCHEM_CACTVS_ROTATABLE_BOND>
4

> <PUBCHEM_CACTVS_SUBSKEYS>
AAADceB7OAAAAAAAAAAAAAAAAAAAAAAAAAAwYMAAAAAAAAABUAAAHgAQCAAADAyBmAAwxoLAAgCIAiVSUACCAAAlIgAIiAEG7MgJJjbC1dOEcUlm9BHJ2Ye6yDCOAAABAAQIQAAAAAIACBCAAAAAAAAAAA==

> <PUBCHEM_IUPAC_OPENEYE_NAME>
N-[3-[(2,3-dihydroxybenzoyl)amino]phenyl]-2,3-dihydroxy-benzamide

> <PUBCHEM_IUPAC_CAS_NAME>
N-[3-[[(2,3-dihydroxyphenyl)-oxomethyl]amino]phenyl]-2,3-dihydroxybenzamide

> <PUBCHEM_IUPAC_NAME_MARKUP>
<I>N</I>-[3-[(2,3-dihydroxybenzoyl)amino]phenyl]-2,3-dihydroxybenzamide

> <PUBCHEM_IUPAC_NAME>
N-[3-[(2,3-dihydroxybenzoyl)amino]phenyl]-2,3-dihydroxybenzamide

> <PUBCHEM_IUPAC_SYSTEMATIC_NAME>
N-[3-[[2,3-bis(oxidanyl)phenyl]carbonylamino]phenyl]-2,3-bis(oxidanyl)benzamide

> <PUBCHEM_IUPAC_TRADITIONAL_NAME>
N-[3-[(2,3-dihydroxybenzoyl)amino]phenyl]-2,3-dihydroxy-benzamide

> <PUBCHEM_IUPAC_INCHI>
InChI=1S/C20H16N2O6/c23-15-8-2-6-13(17(15)25)19(27)21-11-4-1-5-12(10-11)22-20(28)14-7-3-9-16(24)18(14)26/h1-10,23-26H,(H,21,27)(H,22,28)

> <PUBCHEM_IUPAC_INCHIKEY>
MIQUEZGHEJGPJB-UHFFFAOYSA-N

> <PUBCHEM_XLOGP3_AA>
3.3

> <PUBCHEM_EXACT_MASS>
380.100836

> <PUBCHEM_MOLECULAR_FORMULA>
C20H16N2O6

> <PUBCHEM_MOLECULAR_WEIGHT>
380.3

> <PUBCHEM_OPENEYE_CAN_SMILES>
C1=CC(=CC(=C1)NC(=O)C2=C(C(=CC=C2)O)O)NC(=O)C3=C(C(=CC=C3)O)O

> <PUBCHEM_OPENEYE_ISO_SMILES>
C1=CC(=CC(=C1)NC(=O)C2=C(C(=CC=C2)O)O)NC(=O)C3=C(C(=CC=C3)O)O

> <PUBCHEM_CACTVS_TPSA>
139

> <PUBCHEM_MONOISOTOPIC_WEIGHT>
380.100836

> <PUBCHEM_TOTAL_CHARGE>
0

> <PUBCHEM_HEAVY_ATOM_COUNT>
28

> <PUBCHEM_ATOM_DEF_STEREO_COUNT>
0

> <PUBCHEM_ATOM_UDEF_STEREO_COUNT>
0

> <PUBCHEM_BOND_DEF_STEREO_COUNT>
0

> <PUBCHEM_BOND_UDEF_STEREO_COUNT>
0

> <PUBCHEM_ISOTOPIC_ATOM_COUNT>
0

> <PUBCHEM_COMPONENT_COUNT>
1

> <PUBCHEM_CACTVS_TAUTO_COUNT>
-1

> <PUBCHEM_COORDINATE_TYPE>
1
5
255

> <PUBCHEM_BONDANNOTATIONS>
10  11  8
10  15  8
12  19  8
12  21  8
13  20  8
13  22  8
14  18  8
15  18  8
19  23  8
20  24  8
21  25  8
22  26  8
23  27  8
24  28  8
25  27  8
26  28  8
9  11  8
9  14  8

$$$$
6914657
  -OEChem-02182015172D

 58 60  0     0  0  0  0  0  0999 V2000
    5.4641   -5.5000    0.0000 O   0  0  0  0  0  0  0  0  0  0  0  0
    8.0622    2.0000    0.0000 O   0  0  0  0  0  0  0  0  0  0  0  0
    4.5981   -4.0000    0.0000 N   0  0  0  0  0  0  0  0  0  0  0  0
    6.3301    2.0000    0.0000 N   0  0  0  0  0  0  0  0  0  0  0  0
    8.9282    6.5000    0.0000 N   0  0  0  0  0  0  0  0  0  0  0  0
    4.5981   -2.0000    0.0000 C   0  0  0  0  0  0  0  0  0  0  0  0
    3.7320   -2.5000    0.0000 C   0  0  0  0  0  0  0  0  0  0  0  0
    5.4641   -2.5000    0.0000 C   0  0  0  0  0  0  0  0  0  0  0  0
    4.5981   -1.0000    0.0000 C   0  0  0  0  0  0  0  0  0  0  0  0
    3.7320   -3.5000    0.0000 C   0  0  0  0  0  0  0  0  0  0  0  0
    5.4641   -3.5000    0.0000 C   0  0  0  0  0  0  0  0  0  0  0  0
    5.4641   -0.5000    0.0000 C   0  0  0  0  0  0  0  0  0  0  0  0
    5.4641    0.5000    0.0000 C   0  0  0  0  0  0  0  0  0  0  0  0
    4.5981   -5.0000    0.0000 C   0  0  0  0  0  0  0  0  0  0  0  0
    6.3301    1.0000    0.0000 C   0  0  0  0  0  0  0  0  0  0  0  0
    3.7320   -5.5000    0.0000 C   0  0  0  0  0  0  0  0  0  0  0  0
    2.8660   -5.0000    0.0000 C   0  0  0  0  0  0  0  0  0  0  0  0
    3.7320   -6.5000    0.0000 C   0  0  0  0  0  0  0  0  0  0  0  0
    7.1962    2.5000    0.0000 C   0  0  0  0  0  0  0  0  0  0  0  0
    2.0000   -5.5000    0.0000 C   0  0  0  0  0  0  0  0  0  0  0  0
    2.8660   -7.0000    0.0000 C   0  0  0  0  0  0  0  0  0  0  0  0
    2.0000   -6.5000    0.0000 C   0  0  0  0  0  0  0  0  0  0  0  0
    7.1962    3.5000    0.0000 C   0  0  0  0  0  0  0  0  0  0  0  0
    8.0622    4.0000    0.0000 C   0  0  0  0  0  0  0  0  0  0  0  0
    8.0622    5.0000    0.0000 C   0  0  0  0  0  0  0  0  0  0  0  0
    7.1962    5.5000    0.0000 C   0  0  0  0  0  0  0  0  0  0  0  0
    8.9282    5.5000    0.0000 C   0  0  0  0  0  0  0  0  0  0  0  0
    7.1962    6.5000    0.0000 C   0  0  0  0  0  0  0  0  0  0  0  0
    8.0622    7.0000    0.0000 C   0  0  0  0  0  0  0  0  0  0  0  0
    5.1350   -1.6900    0.0000 H   0  0  0  0  0  0  0  0  0  0  0  0
    3.5200   -1.9174    0.0000 H   0  0  0  0  0  0  0  0  0  0  0  0
    3.1215   -2.6077    0.0000 H   0  0  0  0  0  0  0  0  0  0  0  0
    6.0747   -2.6077    0.0000 H   0  0  0  0  0  0  0  0  0  0  0  0
    5.6762   -1.9174    0.0000 H   0  0  0  0  0  0  0  0  0  0  0  0
    4.3860   -0.4174    0.0000 H   0  0  0  0  0  0  0  0  0  0  0  0
    3.9875   -1.1077    0.0000 H   0  0  0  0  0  0  0  0  0  0  0  0
    3.1215   -3.3923    0.0000 H   0  0  0  0  0  0  0  0  0  0  0  0
    3.5200   -4.0826    0.0000 H   0  0  0  0  0  0  0  0  0  0  0  0
    5.6762   -4.0826    0.0000 H   0  0  0  0  0  0  0  0  0  0  0  0
    6.0747   -3.3923    0.0000 H   0  0  0  0  0  0  0  0  0  0  0  0
    5.6762   -1.0826    0.0000 H   0  0  0  0  0  0  0  0  0  0  0  0
    6.0747   -0.3923    0.0000 H   0  0  0  0  0  0  0  0  0  0  0  0
    5.2520    1.0826    0.0000 H   0  0  0  0  0  0  0  0  0  0  0  0
    4.8535    0.3923    0.0000 H   0  0  0  0  0  0  0  0  0  0  0  0
    6.5422    0.4174    0.0000 H   0  0  0  0  0  0  0  0  0  0  0  0
    6.9407    1.1077    0.0000 H   0  0  0  0  0  0  0  0  0  0  0  0
    5.7932    2.3100    0.0000 H   0  0  0  0  0  0  0  0  0  0  0  0
    2.8660   -4.3800    0.0000 H   0  0  0  0  0  0  0  0  0  0  0  0
    4.2690   -6.8100    0.0000 H   0  0  0  0  0  0  0  0  0  0  0  0
    1.4631   -5.1900    0.0000 H   0  0  0  0  0  0  0  0  0  0  0  0
    2.8660   -7.6200    0.0000 H   0  0  0  0  0  0  0  0  0  0  0  0
    1.4631   -6.8100    0.0000 H   0  0  0  0  0  0  0  0  0  0  0  0
    6.6592    3.8100    0.0000 H   0  0  0  0  0  0  0  0  0  0  0  0
    8.5991    3.6900    0.0000 H   0  0  0  0  0  0  0  0  0  0  0  0
    6.6592    5.1900    0.0000 H   0  0  0  0  0  0  0  0  0  0  0  0
    9.4651    5.1900    0.0000 H   0  0  0  0  0  0  0  0  0  0  0  0
    6.6592    6.8100    0.0000 H   0  0  0  0  0  0  0  0  0  0  0  0
    8.0622    7.6200    0.0000 H   0  0  0  0  0  0  0  0  0  0  0  0
  1 14  2  0  0  0  0
  2 19  2  0  0  0  0
  3 10  1  0  0  0  0
  3 11  1  0  0  0  0
  3 14  1  0  0  0  0
  4 15  1  0  0  0  0
  4 19  1  0  0  0  0
  4 47  1  0  0  0  0
  5 27  1  0  0  0  0
  5 29  2  0  0  0  0
  6  7  1  0  0  0  0
  6  8  1  0  0  0  0
  6  9  1  0  0  0  0
  6 30  1  0  0  0  0
  7 10  1  0  0  0  0
  7 31  1  0  0  0  0
  7 32  1  0  0  0  0
  8 11  1  0  0  0  0
  8 33  1  0  0  0  0
  8 34  1  0  0  0  0
  9 12  1  0  0  0  0
  9 35  1  0  0  0  0
  9 36  1  0  0  0  0
 10 37  1  0  0  0  0
 10 38  1  0  0  0  0
 11 39  1  0  0  0  0
 11 40  1  0  0  0  0
 12 13  1  0  0  0  0
 12 41  1  0  0  0  0
 12 42  1  0  0  0  0
 13 15  1  0  0  0  0
 13 43  1  0  0  0  0
 13 44  1  0  0  0  0
 14 16  1  0  0  0  0
 15 45  1  0  0  0  0
 15 46  1  0  0  0  0
 16 17  2  0  0  0  0
 16 18  1  0  0  0  0
 17 20  1  0  0  0  0
 17 48  1  0  0  0  0
 18 21  2  0  0  0  0
 18 49  1  0  0  0  0
 19 23  1  0  0  0  0
 20 22  2  0  0  0  0
 20 50  1  0  0  0  0
 21 22  1  0  0  0  0
 21 51  1  0  0  0  0
 22 52  1  0  0  0  0
 23 24  2  0  0  0  0
 23 53  1  0  0  0  0
 24 25  1  0  0  0  0
 24 54  1  0  0  0  0
 25 26  1  0  0  0  0
 25 27  2  0  0  0  0
 26 28  2  0  0  0  0
 26 55  1  0  0  0  0
 27 56  1  0  0  0  0
 28 29  1  0  0  0  0
 28 57  1  0  0  0  0
 29 58  1  0  0  0  0
M  END
> <PUBCHEM_COMPOUND_CID>
6914657

> <PUBCHEM_COMPOUND_CANONICALIZED>
1

> <PUBCHEM_CACTVS_COMPLEXITY>
534

> <PUBCHEM_CACTVS_HBOND_ACCEPTOR>
3

> <PUBCHEM_CACTVS_HBOND_DONOR>
1

> <PUBCHEM_CACTVS_ROTATABLE_BOND>
8

> <PUBCHEM_CACTVS_SUBSKEYS>
AAADceB7MAAAAAAAAAAAAAAAAAAAAAAAAAA8WIAAAAAAAAABwAAAHgAQAAAADQDBmgQ8gJPIEACoAjF3VACCgCA1AiAI2KE4ZNgIIPLAlZGEIQhglgDIyYcYiACOAAAAAAAAAAAAAAAAAAAAAAAAAAAAAA==

> <PUBCHEM_IUPAC_OPENEYE_NAME>
(E)-N-[4-(1-benzoyl-4-piperidyl)butyl]-3-(3-pyridyl)prop-2-enamide

> <PUBCHEM_IUPAC_CAS_NAME>
(E)-N-[4-(1-benzoyl-4-piperidinyl)butyl]-3-(3-pyridinyl)-2-propenamide

> <PUBCHEM_IUPAC_NAME_MARKUP>
(<I>E</I>)-<I>N</I>-[4-(1-benzoylpiperidin-4-yl)butyl]-3-pyridin-3-ylprop-2-enamide

> <PUBCHEM_IUPAC_NAME>
(E)-N-[4-(1-benzoylpiperidin-4-yl)butyl]-3-pyridin-3-ylprop-2-enamide

> <PUBCHEM_IUPAC_SYSTEMATIC_NAME>
(E)-N-[4-[1-(phenylcarbonyl)piperidin-4-yl]butyl]-3-pyridin-3-yl-prop-2-enamide

> <PUBCHEM_IUPAC_TRADITIONAL_NAME>
(E)-N-[4-(1-benzoyl-4-piperidyl)butyl]-3-(3-pyridyl)acrylamide

> <PUBCHEM_IUPAC_INCHI>
InChI=1S/C24H29N3O2/c28-23(12-11-21-8-6-15-25-19-21)26-16-5-4-7-20-13-17-27(18-14-20)24(29)22-9-2-1-3-10-22/h1-3,6,8-12,15,19-20H,4-5,7,13-14,16-18H2,(H,26,28)/b12-11+

> <PUBCHEM_IUPAC_INCHIKEY>
KPBNHDGDUADAGP-VAWYXSNFSA-N

> <PUBCHEM_XLOGP3_AA>
3.7

> <PUBCHEM_EXACT_MASS>
391.225977

> <PUBCHEM_MOLECULAR_FORMULA>
C24H29N3O2

> <PUBCHEM_MOLECULAR_WEIGHT>
391.5

> <PUBCHEM_OPENEYE_CAN_SMILES>
C1CN(CCC1CCCCNC(=O)C=CC2=CN=CC=C2)C(=O)C3=CC=CC=C3

> <PUBCHEM_OPENEYE_ISO_SMILES>
C1CN(CCC1CCCCNC(=O)/C=C/C2=CN=CC=C2)C(=O)C3=CC=CC=C3

> <PUBCHEM_CACTVS_TPSA>
62.3

> <PUBCHEM_MONOISOTOPIC_WEIGHT>
391.225977

> <PUBCHEM_TOTAL_CHARGE>
0

> <PUBCHEM_HEAVY_ATOM_COUNT>
29

> <PUBCHEM_ATOM_DEF_STEREO_COUNT>
0

> <PUBCHEM_ATOM_UDEF_STEREO_COUNT>
0

> <PUBCHEM_BOND_DEF_STEREO_COUNT>
1

> <PUBCHEM_BOND_UDEF_STEREO_COUNT>
0

> <PUBCHEM_ISOTOPIC_ATOM_COUNT>
0

> <PUBCHEM_COMPONENT_COUNT>
1

> <PUBCHEM_CACTVS_TAUTO_COUNT>
-1

> <PUBCHEM_COORDINATE_TYPE>
1
5
255

> <PUBCHEM_BONDANNOTATIONS>
16  17  8
16  18  8
17  20  8
18  21  8
20  22  8
21  22  8
25  26  8
25  27  8
26  28  8
28  29  8
5  27  8
5  29  8

$$$$
46943432
  -OEChem-02182015172D

 52 55  0     1  0  0  0  0  0999 V2000
    4.3376    3.7358    0.0000 Cl  0  0  0  0  0  0  0  0  0  0  0  0
    2.7357   -0.7317    0.0000 O   0  0  0  0  0  0  0  0  0  0  0  0
    8.2861    1.2612    0.0000 O   0  0  0  0  0  0  0  0  0  0  0  0
    6.5731   -2.0587    0.0000 N   0  0  0  0  0  0  0  0  0  0  0  0
    7.0731    0.1319    0.0000 N   0  0  0  0  0  0  0  0  0  0  0  0
    8.1592   -2.3452    0.0000 N   0  0  0  0  0  0  0  0  0  0  0  0
    7.6874   -3.2201    0.0000 N   0  0  0  0  0  0  0  0  0  0  0  0
    9.9412    0.7507    0.0000 N   0  0  0  0  0  0  0  0  0  0  0  0
    7.6966   -0.6499    0.0000 C   0  0  2  0  0  0  0  0  0  0  0  0
    7.4741   -1.6248    0.0000 C   0  0  0  0  0  0  0  0  0  0  0  0
    5.6721   -1.6248    0.0000 C   0  0  0  0  0  0  0  0  0  0  0  0
    5.4496   -0.6499    0.0000 C   0  0  0  0  0  0  0  0  0  0  0  0
    8.6715   -0.4274    0.0000 C   0  0  0  0  0  0  0  0  0  0  0  0
    6.0731    0.1319    0.0000 C   0  0  0  0  0  0  0  0  0  0  0  0
    6.7091   -3.0435    0.0000 C   0  0  0  0  0  0  0  0  0  0  0  0
    4.9196   -2.3450    0.0000 C   0  0  0  0  0  0  0  0  0  0  0  0
    4.4591   -0.3276    0.0000 C   0  0  0  0  0  0  0  0  0  0  0  0
    5.6392    1.0329    0.0000 C   0  0  0  0  0  0  0  0  0  0  0  0
    8.9663    0.5282    0.0000 C   0  0  0  0  0  0  0  0  0  0  0  0
    3.6901   -1.0302    0.0000 C   0  0  0  0  0  0  0  0  0  0  0  0
    3.9219   -2.0457    0.0000 C   0  0  0  0  0  0  0  0  0  0  0  0
    5.9875   -3.7358    0.0000 C   0  0  0  0  0  0  0  0  0  0  0  0
    4.6420    1.1076    0.0000 C   0  0  0  0  0  0  0  0  0  0  0  0
    6.2025    1.8591    0.0000 C   0  0  0  0  0  0  0  0  0  0  0  0
   10.2360    1.7063    0.0000 C   0  0  0  0  0  0  0  0  0  0  0  0
    4.2081    2.0086    0.0000 C   0  0  0  0  0  0  0  0  0  0  0  0
    5.7686    2.7601    0.0000 C   0  0  0  0  0  0  0  0  0  0  0  0
    4.7714    2.8348    0.0000 C   0  0  0  0  0  0  0  0  0  0  0  0
   11.2109    1.9288    0.0000 C   0  0  0  0  0  0  0  0  0  0  0  0
    2.0000   -1.4091    0.0000 C   0  0  0  0  0  0  0  0  0  0  0  0
    7.9014   -0.0647    0.0000 H   0  0  0  0  0  0  0  0  0  0  0  0
    8.7024   -1.0466    0.0000 H   0  0  0  0  0  0  0  0  0  0  0  0
    9.2867   -0.5045    0.0000 H   0  0  0  0  0  0  0  0  0  0  0  0
    5.0645   -2.9478    0.0000 H   0  0  0  0  0  0  0  0  0  0  0  0
    4.3281    0.2784    0.0000 H   0  0  0  0  0  0  0  0  0  0  0  0
    3.4690   -2.4691    0.0000 H   0  0  0  0  0  0  0  0  0  0  0  0
    5.5583   -3.2884    0.0000 H   0  0  0  0  0  0  0  0  0  0  0  0
    5.5401   -4.1650    0.0000 H   0  0  0  0  0  0  0  0  0  0  0  0
    6.4167   -4.1832    0.0000 H   0  0  0  0  0  0  0  0  0  0  0  0
    4.2928    0.5953    0.0000 H   0  0  0  0  0  0  0  0  0  0  0  0
    6.8208    1.8128    0.0000 H   0  0  0  0  0  0  0  0  0  0  0  0
   10.3629    0.2962    0.0000 H   0  0  0  0  0  0  0  0  0  0  0  0
   10.2050    2.3255    0.0000 H   0  0  0  0  0  0  0  0  0  0  0  0
    9.6208    1.7834    0.0000 H   0  0  0  0  0  0  0  0  0  0  0  0
    3.5899    2.0549    0.0000 H   0  0  0  0  0  0  0  0  0  0  0  0
    6.1179    3.2724    0.0000 H   0  0  0  0  0  0  0  0  0  0  0  0
   11.3488    1.3243    0.0000 H   0  0  0  0  0  0  0  0  0  0  0  0
   11.8153    2.0668    0.0000 H   0  0  0  0  0  0  0  0  0  0  0  0
   11.0729    2.5332    0.0000 H   0  0  0  0  0  0  0  0  0  0  0  0
    1.5800   -0.9530    0.0000 H   0  0  0  0  0  0  0  0  0  0  0  0
    1.5439   -1.8290    0.0000 H   0  0  0  0  0  0  0  0  0  0  0  0
    2.4200   -1.8652    0.0000 H   0  0  0  0  0  0  0  0  0  0  0  0
  1 28  1  0  0  0  0
  2 20  1  0  0  0  0
  2 30  1  0  0  0  0
  3 19  2  0  0  0  0
  4 10  1  0  0  0  0
  4 11  1  0  0  0  0
  4 15  1  0  0  0  0
  5  9  1  0  0  0  0
  5 14  2  0  0  0  0
  6  7  1  0  0  0  0
  6 10  2  0  0  0  0
  7 15  2  0  0  0  0
  8 19  1  0  0  0  0
  8 25  1  0  0  0  0
  8 42  1  0  0  0  0
  9 10  1  0  0  0  0
  9 13  1  1  0  0  0
  9 31  1  0  0  0  0
 11 12  2  0  0  0  0
 11 16  1  0  0  0  0
 12 14  1  0  0  0  0
 12 17  1  0  0  0  0
 13 19  1  0  0  0  0
 13 32  1  0  0  0  0
 13 33  1  0  0  0  0
 14 18  1  0  0  0  0
 15 22  1  0  0  0  0
 16 21  2  0  0  0  0
 16 34  1  0  0  0  0
 17 20  2  0  0  0  0
 17 35  1  0  0  0  0
 18 23  2  0  0  0  0
 18 24  1  0  0  0  0
 20 21  1  0  0  0  0
 21 36  1  0  0  0  0
 22 37  1  0  0  0  0
 22 38  1  0  0  0  0
 22 39  1  0  0  0  0
 23 26  1  0  0  0  0
 23 40  1  0  0  0  0
 24 27  2  0  0  0  0
 24 41  1  0  0  0  0
 25 29  1  0  0  0  0
 25 43  1  0  0  0  0
 25 44  1  0  0  0  0
 26 28  2  0  0  0  0
 26 45  1  0  0  0  0
 27 28  1  0  0  0  0
 27 46  1  0  0  0  0
 29 47  1  0  0  0  0
 29 48  1  0  0  0  0
 29 49  1  0  0  0  0
 30 50  1  0  0  0  0
 30 51  1  0  0  0  0
 30 52  1  0  0  0  0
M  END
> <PUBCHEM_COMPOUND_CID>
46943432

> <PUBCHEM_COMPOUND_CANONICALIZED>
1

> <PUBCHEM_CACTVS_COMPLEXITY>
639

> <PUBCHEM_CACTVS_HBOND_ACCEPTOR>
5

> <PUBCHEM_CACTVS_HBOND_DONOR>
1

> <PUBCHEM_CACTVS_ROTATABLE_BOND>
5

> <PUBCHEM_CACTVS_SUBSKEYS>
AAADceB7sAAEAAAAAAAAAAAAAAAAAWAAAAAwYAAABAAAAACB0AAAHgIYAAAADC7BmyYz1ofMFACqAydydACSiCshJ6AdiIE+bpiMbrrF+5uUMChk3hPI6Ce0wPAOBEABAAACAAAIgAIAAAQAAAAAAAAAAA==

> <PUBCHEM_IUPAC_OPENEYE_NAME>
2-[(4S)-6-(4-chlorophenyl)-8-methoxy-1-methyl-4H-[1,2,4]triazolo[4,3-a][1,4]benzodiazepin-4-yl]-N-ethyl-acetamide

> <PUBCHEM_IUPAC_CAS_NAME>
2-[(4S)-6-(4-chlorophenyl)-8-methoxy-1-methyl-4H-[1,2,4]triazolo[4,3-a][1,4]benzodiazepin-4-yl]-N-ethylacetamide

> <PUBCHEM_IUPAC_NAME_MARKUP>
2-[(4<I>S</I>)-6-(4-chlorophenyl)-8-methoxy-1-methyl-4<I>H</I>-[1,2,4]triazolo[4,3-a][1,4]benzodiazepin-4-yl]-<I>N</I>-ethylacetamide

> <PUBCHEM_IUPAC_NAME>
2-[(4S)-6-(4-chlorophenyl)-8-methoxy-1-methyl-4H-[1,2,4]triazolo[4,3-a][1,4]benzodiazepin-4-yl]-N-ethylacetamide

> <PUBCHEM_IUPAC_SYSTEMATIC_NAME>
2-[(4S)-6-(4-chlorophenyl)-8-methoxy-1-methyl-4H-[1,2,4]triazolo[4,3-a][1,4]benzodiazepin-4-yl]-N-ethyl-ethanamide

> <PUBCHEM_IUPAC_TRADITIONAL_NAME>
2-[(4S)-6-(4-chlorophenyl)-8-methoxy-1-methyl-4H-[1,2,4]triazolo[4,3-a][1,4]benzodiazepin-4-yl]-N-ethyl-acetamide

> <PUBCHEM_IUPAC_INCHI>
InChI=1S/C22H22ClN5O2/c1-4-24-20(29)12-18-22-27-26-13(2)28(22)19-10-9-16(30-3)11-17(19)21(25-18)14-5-7-15(23)8-6-14/h5-11,18H,4,12H2,1-3H3,(H,24,29)/t18-/m0/s1

> <PUBCHEM_IUPAC_INCHIKEY>
AAAQFGUYHFJNHI-SFHVURJKSA-N

> <PUBCHEM_XLOGP3_AA>
2.9

> <PUBCHEM_EXACT_MASS>
423.146203

> <PUBCHEM_MOLECULAR_FORMULA>
C22H22ClN5O2

> <PUBCHEM_MOLECULAR_WEIGHT>
423.9

> <PUBCHEM_OPENEYE_CAN_SMILES>
CCNC(=O)CC1C2=NN=C(N2C3=C(C=C(C=C3)OC)C(=N1)C4=CC=C(C=C4)Cl)C

> <PUBCHEM_OPENEYE_ISO_SMILES>
CCNC(=O)C[C@H]1C2=NN=C(N2C3=C(C=C(C=C3)OC)C(=N1)C4=CC=C(C=C4)Cl)C

> <PUBCHEM_CACTVS_TPSA>
81.4

> <PUBCHEM_MONOISOTOPIC_WEIGHT>
423.146203

> <PUBCHEM_TOTAL_CHARGE>
0

> <PUBCHEM_HEAVY_ATOM_COUNT>
30

> <PUBCHEM_ATOM_DEF_STEREO_COUNT>
1

> <PUBCHEM_ATOM_UDEF_STEREO_COUNT>
0

> <PUBCHEM_BOND_DEF_STEREO_COUNT>
0

> <PUBCHEM_BOND_UDEF_STEREO_COUNT>
0

> <PUBCHEM_ISOTOPIC_ATOM_COUNT>
0

> <PUBCHEM_COMPONENT_COUNT>
1

> <PUBCHEM_CACTVS_TAUTO_COUNT>
-1

> <PUBCHEM_COORDINATE_TYPE>
1
5
255

> <PUBCHEM_BONDANNOTATIONS>
11  12  8
11  16  8
12  17  8
16  21  8
17  20  8
18  23  8
18  24  8
20  21  8
23  26  8
24  27  8
26  28  8
27  28  8
4  10  8
4  15  8
6  10  8
6  7  8
7  15  8
9  13  5

$$$$
71268957
  -OEChem-02182015172D

 79 83  0     0  0  0  0  0  0999 V2000
    9.7942    0.2500    0.0000 O   0  0  0  0  0  0  0  0  0  0  0  0
    6.3301    0.2500    0.0000 O   0  0  0  0  0  0  0  0  0  0  0  0
    4.5981   -2.7500    0.0000 N   0  0  0  0  0  0  0  0  0  0  0  0
    2.8660   -1.7500    0.0000 N   0  0  0  0  0  0  0  0  0  0  0  0
   10.7404   -3.0547    0.0000 N   0  0  0  0  0  0  0  0  0  0  0  0
    5.4641   -4.2500    0.0000 N   0  0  0  0  0  0  0  0  0  0  0  0
   11.3241   -2.2500    0.0000 N   0  0  0  0  0  0  0  0  0  0  0  0
    8.0622    0.2500    0.0000 N   0  0  0  0  0  0  0  0  0  0  0  0
    5.4641    1.7500    0.0000 N   0  0  0  0  0  0  0  0  0  0  0  0
    3.7320   -3.2500    0.0000 C   0  0  0  0  0  0  0  0  0  0  0  0
    4.5981   -1.7500    0.0000 C   0  0  0  0  0  0  0  0  0  0  0  0
    2.8660   -2.7500    0.0000 C   0  0  0  0  0  0  0  0  0  0  0  0
    3.7320   -1.2500    0.0000 C   0  0  0  0  0  0  0  0  0  0  0  0
    5.4641   -3.2500    0.0000 C   0  0  0  0  0  0  0  0  0  0  0  0
    2.0000   -1.2500    0.0000 C   0  0  0  0  0  0  0  0  0  0  0  0
    9.7942   -2.7500    0.0000 C   0  0  0  0  0  0  0  0  0  0  0  0
    6.3301   -2.7500    0.0000 C   0  0  0  0  0  0  0  0  0  0  0  0
    7.1962   -3.2500    0.0000 C   0  0  0  0  0  0  0  0  0  0  0  0
    8.0622   -2.7500    0.0000 C   0  0  0  0  0  0  0  0  0  0  0  0
    9.7942   -1.7500    0.0000 C   0  0  0  0  0  0  0  0  0  0  0  0
   11.0511   -4.0052    0.0000 C   0  0  0  0  0  0  0  0  0  0  0  0
    8.9282   -1.2500    0.0000 C   0  0  0  0  0  0  0  0  0  0  0  0
    8.9282   -3.2500    0.0000 C   0  0  0  0  0  0  0  0  0  0  0  0
    8.0622   -1.7500    0.0000 C   0  0  0  0  0  0  0  0  0  0  0  0
    7.1962   -4.2500    0.0000 C   0  0  0  0  0  0  0  0  0  0  0  0
   10.7404   -1.4453    0.0000 C   0  0  0  0  0  0  0  0  0  0  0  0
    6.3301   -4.7500    0.0000 C   0  0  0  0  0  0  0  0  0  0  0  0
    8.9282   -0.2500    0.0000 C   0  0  0  0  0  0  0  0  0  0  0  0
   12.0296   -4.2115    0.0000 C   0  0  0  0  0  0  0  0  0  0  0  0
   10.3833   -4.7496    0.0000 C   0  0  0  0  0  0  0  0  0  0  0  0
    7.1962    1.7500    0.0000 C   0  0  0  0  0  0  0  0  0  0  0  0
    8.0622    1.2500    0.0000 C   0  0  0  0  0  0  0  0  0  0  0  0
    7.1962    2.7500    0.0000 C   0  0  0  0  0  0  0  0  0  0  0  0
    8.0622    3.2500    0.0000 C   0  0  0  0  0  0  0  0  0  0  0  0
    6.3301    3.2500    0.0000 C   0  0  0  0  0  0  0  0  0  0  0  0
    8.0622    4.2500    0.0000 C   0  0  0  0  0  0  0  0  0  0  0  0
    6.3301    1.2500    0.0000 C   0  0  0  0  0  0  0  0  0  0  0  0
    5.4641    2.7500    0.0000 C   0  0  0  0  0  0  0  0  0  0  0  0
    8.9282    4.7500    0.0000 C   0  0  0  0  0  0  0  0  0  0  0  0
    4.5981    3.2500    0.0000 C   0  0  0  0  0  0  0  0  0  0  0  0
    3.3335   -3.7250    0.0000 H   0  0  0  0  0  0  0  0  0  0  0  0
    4.1306   -3.7250    0.0000 H   0  0  0  0  0  0  0  0  0  0  0  0
    5.2087   -1.8577    0.0000 H   0  0  0  0  0  0  0  0  0  0  0  0
    4.8101   -1.1674    0.0000 H   0  0  0  0  0  0  0  0  0  0  0  0
    2.2554   -2.6423    0.0000 H   0  0  0  0  0  0  0  0  0  0  0  0
    2.6540   -3.3326    0.0000 H   0  0  0  0  0  0  0  0  0  0  0  0
    4.1306   -0.7751    0.0000 H   0  0  0  0  0  0  0  0  0  0  0  0
    3.3335   -0.7751    0.0000 H   0  0  0  0  0  0  0  0  0  0  0  0
    2.3100   -0.7131    0.0000 H   0  0  0  0  0  0  0  0  0  0  0  0
    1.4631   -0.9400    0.0000 H   0  0  0  0  0  0  0  0  0  0  0  0
    1.6900   -1.7869    0.0000 H   0  0  0  0  0  0  0  0  0  0  0  0
    6.3301   -2.1300    0.0000 H   0  0  0  0  0  0  0  0  0  0  0  0
   10.4444   -3.8774    0.0000 H   0  0  0  0  0  0  0  0  0  0  0  0
    8.9282   -3.8700    0.0000 H   0  0  0  0  0  0  0  0  0  0  0  0
    7.5252   -1.4400    0.0000 H   0  0  0  0  0  0  0  0  0  0  0  0
    7.7331   -4.5600    0.0000 H   0  0  0  0  0  0  0  0  0  0  0  0
   10.9331   -0.8559    0.0000 H   0  0  0  0  0  0  0  0  0  0  0  0
    6.3301   -5.3700    0.0000 H   0  0  0  0  0  0  0  0  0  0  0  0
   11.9018   -4.8182    0.0000 H   0  0  0  0  0  0  0  0  0  0  0  0
   12.6363   -4.3393    0.0000 H   0  0  0  0  0  0  0  0  0  0  0  0
   12.1575   -3.6048    0.0000 H   0  0  0  0  0  0  0  0  0  0  0  0
    9.9218   -4.3355    0.0000 H   0  0  0  0  0  0  0  0  0  0  0  0
    9.9692   -5.2110    0.0000 H   0  0  0  0  0  0  0  0  0  0  0  0
   10.8447   -5.1636    0.0000 H   0  0  0  0  0  0  0  0  0  0  0  0
    8.6728    1.1423    0.0000 H   0  0  0  0  0  0  0  0  0  0  0  0
    8.2742    1.8326    0.0000 H   0  0  0  0  0  0  0  0  0  0  0  0
    7.5252   -0.0600    0.0000 H   0  0  0  0  0  0  0  0  0  0  0  0
    8.2742    2.6674    0.0000 H   0  0  0  0  0  0  0  0  0  0  0  0
    8.6728    3.3577    0.0000 H   0  0  0  0  0  0  0  0  0  0  0  0
    6.3301    3.8700    0.0000 H   0  0  0  0  0  0  0  0  0  0  0  0
    7.8501    4.8326    0.0000 H   0  0  0  0  0  0  0  0  0  0  0  0
    7.4516    4.1423    0.0000 H   0  0  0  0  0  0  0  0  0  0  0  0
    4.9272    1.4400    0.0000 H   0  0  0  0  0  0  0  0  0  0  0  0
    9.2382    4.2131    0.0000 H   0  0  0  0  0  0  0  0  0  0  0  0
    9.4651    5.0600    0.0000 H   0  0  0  0  0  0  0  0  0  0  0  0
    8.6182    5.2869    0.0000 H   0  0  0  0  0  0  0  0  0  0  0  0
    4.9081    3.7869    0.0000 H   0  0  0  0  0  0  0  0  0  0  0  0
    4.0611    3.5600    0.0000 H   0  0  0  0  0  0  0  0  0  0  0  0
    4.2881    2.7131    0.0000 H   0  0  0  0  0  0  0  0  0  0  0  0
  1 28  2  0  0  0  0
  2 37  2  0  0  0  0
  3 10  1  0  0  0  0
  3 11  1  0  0  0  0
  3 14  1  0  0  0  0
  4 12  1  0  0  0  0
  4 13  1  0  0  0  0
  4 15  1  0  0  0  0
  5  7  1  0  0  0  0
  5 16  1  0  0  0  0
  5 21  1  0  0  0  0
  6 14  2  0  0  0  0
  6 27  1  0  0  0  0
  7 26  2  0  0  0  0
  8 28  1  0  0  0  0
  8 32  1  0  0  0  0
  8 67  1  0  0  0  0
  9 37  1  0  0  0  0
  9 38  1  0  0  0  0
  9 73  1  0  0  0  0
 10 12  1  0  0  0  0
 10 41  1  0  0  0  0
 10 42  1  0  0  0  0
 11 13  1  0  0  0  0
 11 43  1  0  0  0  0
 11 44  1  0  0  0  0
 12 45  1  0  0  0  0
 12 46  1  0  0  0  0
 13 47  1  0  0  0  0
 13 48  1  0  0  0  0
 14 17  1  0  0  0  0
 15 49  1  0  0  0  0
 15 50  1  0  0  0  0
 15 51  1  0  0  0  0
 16 20  1  0  0  0  0
 16 23  2  0  0  0  0
 17 18  2  0  0  0  0
 17 52  1  0  0  0  0
 18 19  1  0  0  0  0
 18 25  1  0  0  0  0
 19 23  1  0  0  0  0
 19 24  2  0  0  0  0
 20 22  2  0  0  0  0
 20 26  1  0  0  0  0
 21 29  1  0  0  0  0
 21 30  1  0  0  0  0
 21 53  1  0  0  0  0
 22 24  1  0  0  0  0
 22 28  1  0  0  0  0
 23 54  1  0  0  0  0
 24 55  1  0  0  0  0
 25 27  2  0  0  0  0
 25 56  1  0  0  0  0
 26 57  1  0  0  0  0
 27 58  1  0  0  0  0
 29 59  1  0  0  0  0
 29 60  1  0  0  0  0
 29 61  1  0  0  0  0
 30 62  1  0  0  0  0
 30 63  1  0  0  0  0
 30 64  1  0  0  0  0
 31 32  1  0  0  0  0
 31 33  2  0  0  0  0
 31 37  1  0  0  0  0
 32 65  1  0  0  0  0
 32 66  1  0  0  0  0
 33 34  1  0  0  0  0
 33 35  1  0  0  0  0
 34 36  1  0  0  0  0
 34 68  1  0  0  0  0
 34 69  1  0  0  0  0
 35 38  2  0  0  0  0
 35 70  1  0  0  0  0
 36 39  1  0  0  0  0
 36 71  1  0  0  0  0
 36 72  1  0  0  0  0
 38 40  1  0  0  0  0
 39 74  1  0  0  0  0
 39 75  1  0  0  0  0
 39 76  1  0  0  0  0
 40 77  1  0  0  0  0
 40 78  1  0  0  0  0
 40 79  1  0  0  0  0
M  END
> <PUBCHEM_COMPOUND_CID>
71268957

> <PUBCHEM_COMPOUND_CANONICALIZED>
1

> <PUBCHEM_CACTVS_COMPLEXITY>
986

> <PUBCHEM_CACTVS_HBOND_ACCEPTOR>
6

> <PUBCHEM_CACTVS_HBOND_DONOR>
2

> <PUBCHEM_CACTVS_ROTATABLE_BOND>
8

> <PUBCHEM_CACTVS_SUBSKEYS>
AAADcfB7sAAAAAAAAAAAAAAAAAAAAWAAAAA8WIEAAAAAAFgB/AAAHgAYAAAADCjBngQ/8PPIEACqAzd3dACShCk1giAZ2KE4ZNiIYPrA3dGUpQhongLIyacciMCOwAACQAASAACAAASAACQAAAAAAAAAAA==

> <PUBCHEM_IUPAC_OPENEYE_NAME>
1-isopropyl-N-[(6-methyl-2-oxo-4-propyl-1H-pyridin-3-yl)methyl]-6-[2-(4-methylpiperazin-1-yl)-4-pyridyl]indazole-4-carboxamide

> <PUBCHEM_IUPAC_CAS_NAME>
N-[(6-methyl-2-oxo-4-propyl-1H-pyridin-3-yl)methyl]-6-[2-(4-methyl-1-piperazinyl)-4-pyridinyl]-1-propan-2-yl-4-indazolecarboxamide

> <PUBCHEM_IUPAC_NAME_MARKUP>
<I>N</I>-[(6-methyl-2-oxo-4-propyl-1<I>H</I>-pyridin-3-yl)methyl]-6-[2-(4-methylpiperazin-1-yl)pyridin-4-yl]-1-propan-2-ylindazole-4-carboxamide

> <PUBCHEM_IUPAC_NAME>
N-[(6-methyl-2-oxo-4-propyl-1H-pyridin-3-yl)methyl]-6-[2-(4-methylpiperazin-1-yl)pyridin-4-yl]-1-propan-2-ylindazole-4-carboxamide

> <PUBCHEM_IUPAC_SYSTEMATIC_NAME>
N-[(6-methyl-2-oxidanylidene-4-propyl-1H-pyridin-3-yl)methyl]-6-[2-(4-methylpiperazin-1-yl)pyridin-4-yl]-1-propan-2-yl-indazole-4-carboxamide

> <PUBCHEM_IUPAC_TRADITIONAL_NAME>
1-isopropyl-N-[(2-keto-6-methyl-4-propyl-1H-pyridin-3-yl)methyl]-6-[2-(4-methylpiperazino)-4-pyridyl]indazole-4-carboxamide

> <PUBCHEM_IUPAC_INCHI>
InChI=1S/C31H39N7O2/c1-6-7-23-14-21(4)35-31(40)26(23)18-33-30(39)25-15-24(16-28-27(25)19-34-38(28)20(2)3)22-8-9-32-29(17-22)37-12-10-36(5)11-13-37/h8-9,14-17,19-20H,6-7,10-13,18H2,1-5H3,(H,33,39)(H,35,40)

> <PUBCHEM_IUPAC_INCHIKEY>
ULNXAWLQFZMIHX-UHFFFAOYSA-N

> <PUBCHEM_XLOGP3_AA>
4

> <PUBCHEM_EXACT_MASS>
541.316524

> <PUBCHEM_MOLECULAR_FORMULA>
C31H39N7O2

> <PUBCHEM_MOLECULAR_WEIGHT>
541.7

> <PUBCHEM_OPENEYE_CAN_SMILES>
CCCC1=C(C(=O)NC(=C1)C)CNC(=O)C2=C3C=NN(C3=CC(=C2)C4=CC(=NC=C4)N5CCN(CC5)C)C(C)C

> <PUBCHEM_OPENEYE_ISO_SMILES>
CCCC1=C(C(=O)NC(=C1)C)CNC(=O)C2=C3C=NN(C3=CC(=C2)C4=CC(=NC=C4)N5CCN(CC5)C)C(C)C

> <PUBCHEM_CACTVS_TPSA>
95.4

> <PUBCHEM_MONOISOTOPIC_WEIGHT>
541.316524

> <PUBCHEM_TOTAL_CHARGE>
0

> <PUBCHEM_HEAVY_ATOM_COUNT>
40

> <PUBCHEM_ATOM_DEF_STEREO_COUNT>
0

> <PUBCHEM_ATOM_UDEF_STEREO_COUNT>
0

> <PUBCHEM_BOND_DEF_STEREO_COUNT>
0

> <PUBCHEM_BOND_UDEF_STEREO_COUNT>
0

> <PUBCHEM_ISOTOPIC_ATOM_COUNT>
0

> <PUBCHEM_COMPONENT_COUNT>
1

> <PUBCHEM_CACTVS_TAUTO_COUNT>
-1

> <PUBCHEM_COORDINATE_TYPE>
1
5
255

> <PUBCHEM_BONDANNOTATIONS>
14  17  8
16  20  8
16  23  8
17  18  8
18  25  8
19  23  8
19  24  8
20  22  8
20  26  8
22  24  8
25  27  8
31  33  8
31  37  8
33  35  8
35  38  8
5  16  8
5  7  8
6  14  8
6  27  8
7  26  8
9  37  8
9  38  8

$$$$
60167849
  -OEChem-02182015172D

 53 56  0     0  0  0  0  0  0999 V2000
    7.9128    0.3512    0.0000 N   0  0  0  0  0  0  0  0  0  0  0  0
    9.6448    0.3512    0.0000 N   0  0  0  0  0  0  0  0  0  0  0  0
   10.5109    1.8512    0.0000 N   0  0  0  0  0  0  0  0  0  0  0  0
    3.5827   -1.1488    0.0000 N   0  0  0  0  0  0  0  0  0  0  0  0
    3.4782   -2.1433    0.0000 N   0  0  0  0  0  0  0  0  0  0  0  0
    2.5000   -2.3512    0.0000 N   0  0  0  0  0  0  0  0  0  0  0  0
   10.5109   -1.1488    0.0000 C   0  0  0  0  0  0  0  0  0  0  0  0
   11.3769   -0.6488    0.0000 C   0  0  0  0  0  0  0  0  0  0  0  0
   11.3769    0.3512    0.0000 C   0  0  0  0  0  0  0  0  0  0  0  0
   10.5109   -2.1488    0.0000 C   0  0  0  0  0  0  0  0  0  0  0  0
    9.6448   -0.6488    0.0000 C   0  0  0  0  0  0  0  0  0  0  0  0
   12.2429   -1.1488    0.0000 C   0  0  0  0  0  0  0  0  0  0  0  0
   10.5109    0.8512    0.0000 C   0  0  0  0  0  0  0  0  0  0  0  0
   12.2429    0.8512    0.0000 C   0  0  0  0  0  0  0  0  0  0  0  0
    8.7788    0.8512    0.0000 C   0  0  0  0  0  0  0  0  0  0  0  0
    7.0468    0.8512    0.0000 C   0  0  0  0  0  0  0  0  0  0  0  0
   13.1090   -0.6488    0.0000 C   0  0  0  0  0  0  0  0  0  0  0  0
    6.1808    0.3512    0.0000 C   0  0  0  0  0  0  0  0  0  0  0  0
    8.7788    1.8512    0.0000 C   0  0  0  0  0  0  0  0  0  0  0  0
   13.1090    0.3512    0.0000 C   0  0  0  0  0  0  0  0  0  0  0  0
    9.6448    2.3512    0.0000 C   0  0  0  0  0  0  0  0  0  0  0  0
    6.1808   -0.6488    0.0000 C   0  0  0  0  0  0  0  0  0  0  0  0
    5.3147    0.8512    0.0000 C   0  0  0  0  0  0  0  0  0  0  0  0
    4.4487   -0.6488    0.0000 C   0  0  0  0  0  0  0  0  0  0  0  0
    5.3147   -1.1488    0.0000 C   0  0  0  0  0  0  0  0  0  0  0  0
    4.4487    0.3512    0.0000 C   0  0  0  0  0  0  0  0  0  0  0  0
    7.9128    2.3512    0.0000 C   0  0  0  0  0  0  0  0  0  0  0  0
    2.6691   -0.7420    0.0000 C   0  0  0  0  0  0  0  0  0  0  0  0
    2.0000   -1.4852    0.0000 C   0  0  0  0  0  0  0  0  0  0  0  0
   11.0478   -1.4588    0.0000 H   0  0  0  0  0  0  0  0  0  0  0  0
    9.8909   -2.1488    0.0000 H   0  0  0  0  0  0  0  0  0  0  0  0
   10.5109   -2.7688    0.0000 H   0  0  0  0  0  0  0  0  0  0  0  0
   11.1309   -2.1488    0.0000 H   0  0  0  0  0  0  0  0  0  0  0  0
    9.9548   -0.1118    0.0000 H   0  0  0  0  0  0  0  0  0  0  0  0
    9.1079   -0.3388    0.0000 H   0  0  0  0  0  0  0  0  0  0  0  0
    9.3348   -1.1857    0.0000 H   0  0  0  0  0  0  0  0  0  0  0  0
   12.2429   -1.7688    0.0000 H   0  0  0  0  0  0  0  0  0  0  0  0
   12.2429    1.4712    0.0000 H   0  0  0  0  0  0  0  0  0  0  0  0
    7.4453    1.3262    0.0000 H   0  0  0  0  0  0  0  0  0  0  0  0
    6.6482    1.3262    0.0000 H   0  0  0  0  0  0  0  0  0  0  0  0
   13.6459   -0.9588    0.0000 H   0  0  0  0  0  0  0  0  0  0  0  0
    7.9128   -0.2688    0.0000 H   0  0  0  0  0  0  0  0  0  0  0  0
   13.6459    0.6612    0.0000 H   0  0  0  0  0  0  0  0  0  0  0  0
    9.6448    2.9712    0.0000 H   0  0  0  0  0  0  0  0  0  0  0  0
    6.7177   -0.9588    0.0000 H   0  0  0  0  0  0  0  0  0  0  0  0
    5.3147    1.4712    0.0000 H   0  0  0  0  0  0  0  0  0  0  0  0
    5.3147   -1.7688    0.0000 H   0  0  0  0  0  0  0  0  0  0  0  0
    3.9118    0.6612    0.0000 H   0  0  0  0  0  0  0  0  0  0  0  0
    8.2228    2.8882    0.0000 H   0  0  0  0  0  0  0  0  0  0  0  0
    7.3759    2.6612    0.0000 H   0  0  0  0  0  0  0  0  0  0  0  0
    7.6028    1.8143    0.0000 H   0  0  0  0  0  0  0  0  0  0  0  0
    2.5402   -0.1356    0.0000 H   0  0  0  0  0  0  0  0  0  0  0  0
    1.3834   -1.4204    0.0000 H   0  0  0  0  0  0  0  0  0  0  0  0
  1 15  1  0  0  0  0
  1 16  1  0  0  0  0
  1 42  1  0  0  0  0
  2 13  1  0  0  0  0
  2 15  2  0  0  0  0
  3 13  2  0  0  0  0
  3 21  1  0  0  0  0
  4  5  1  0  0  0  0
  4 24  1  0  0  0  0
  4 28  1  0  0  0  0
  5  6  2  0  0  0  0
  6 29  1  0  0  0  0
  7  8  1  0  0  0  0
  7 10  1  0  0  0  0
  7 11  1  0  0  0  0
  7 30  1  0  0  0  0
  8  9  1  0  0  0  0
  8 12  2  0  0  0  0
  9 13  1  0  0  0  0
  9 14  2  0  0  0  0
 10 31  1  0  0  0  0
 10 32  1  0  0  0  0
 10 33  1  0  0  0  0
 11 34  1  0  0  0  0
 11 35  1  0  0  0  0
 11 36  1  0  0  0  0
 12 17  1  0  0  0  0
 12 37  1  0  0  0  0
 14 20  1  0  0  0  0
 14 38  1  0  0  0  0
 15 19  1  0  0  0  0
 16 18  1  0  0  0  0
 16 39  1  0  0  0  0
 16 40  1  0  0  0  0
 17 20  2  0  0  0  0
 17 41  1  0  0  0  0
 18 22  2  0  0  0  0
 18 23  1  0  0  0  0
 19 21  2  0  0  0  0
 19 27  1  0  0  0  0
 20 43  1  0  0  0  0
 21 44  1  0  0  0  0
 22 25  1  0  0  0  0
 22 45  1  0  0  0  0
 23 26  2  0  0  0  0
 23 46  1  0  0  0  0
 24 25  2  0  0  0  0
 24 26  1  0  0  0  0
 25 47  1  0  0  0  0
 26 48  1  0  0  0  0
 27 49  1  0  0  0  0
 27 50  1  0  0  0  0
 27 51  1  0  0  0  0
 28 29  2  0  0  0  0
 28 52  1  0  0  0  0
 29 53  1  0  0  0  0
M  END
> <PUBCHEM_COMPOUND_CID>
60167849

> <PUBCHEM_COMPOUND_CANONICALIZED>
1

> <PUBCHEM_CACTVS_COMPLEXITY>
492

> <PUBCHEM_CACTVS_HBOND_ACCEPTOR>
5

> <PUBCHEM_CACTVS_HBOND_DONOR>
1

> <PUBCHEM_CACTVS_ROTATABLE_BOND>
6

> <PUBCHEM_CACTVS_SUBSKEYS>
AAADceB7gAAAAAAAAAAAAAAAAAAAAWAAAAA8YIAAAAAAAAAB9AAAHAAYAAAADQjBGwQ/8JbIEACiAjZnZACChC0xkqAZ2KA4dJiIaOLA2dGUJAhogALIyCcQgMAOiAAAAAAQAAAQAAAAACAAAAAAAAAAAA==

> <PUBCHEM_IUPAC_OPENEYE_NAME>
2-(2-isopropylphenyl)-5-methyl-N-[[4-(triazol-1-yl)phenyl]methyl]pyrimidin-4-amine

> <PUBCHEM_IUPAC_CAS_NAME>
5-methyl-2-(2-propan-2-ylphenyl)-N-[[4-(1-triazolyl)phenyl]methyl]-4-pyrimidinamine

> <PUBCHEM_IUPAC_NAME_MARKUP>
5-methyl-2-(2-propan-2-ylphenyl)-<I>N</I>-[[4-(triazol-1-yl)phenyl]methyl]pyrimidin-4-amine

> <PUBCHEM_IUPAC_NAME>
5-methyl-2-(2-propan-2-ylphenyl)-N-[[4-(triazol-1-yl)phenyl]methyl]pyrimidin-4-amine

> <PUBCHEM_IUPAC_SYSTEMATIC_NAME>
5-methyl-2-(2-propan-2-ylphenyl)-N-[[4-(1,2,3-triazol-1-yl)phenyl]methyl]pyrimidin-4-amine

> <PUBCHEM_IUPAC_TRADITIONAL_NAME>
(5-methyl-2-o-cumenyl-pyrimidin-4-yl)-[4-(triazol-1-yl)benzyl]amine

> <PUBCHEM_IUPAC_INCHI>
InChI=1S/C23H24N6/c1-16(2)20-6-4-5-7-21(20)23-24-14-17(3)22(27-23)25-15-18-8-10-19(11-9-18)29-13-12-26-28-29/h4-14,16H,15H2,1-3H3,(H,24,25,27)

> <PUBCHEM_IUPAC_INCHIKEY>
VUIRVWPJNKZOSS-UHFFFAOYSA-N

> <PUBCHEM_XLOGP3_AA>
4.6

> <PUBCHEM_EXACT_MASS>
384.206245

> <PUBCHEM_MOLECULAR_FORMULA>
C23H24N6

> <PUBCHEM_MOLECULAR_WEIGHT>
384.5

> <PUBCHEM_OPENEYE_CAN_SMILES>
CC1=CN=C(N=C1NCC2=CC=C(C=C2)N3C=CN=N3)C4=CC=CC=C4C(C)C

> <PUBCHEM_OPENEYE_ISO_SMILES>
CC1=CN=C(N=C1NCC2=CC=C(C=C2)N3C=CN=N3)C4=CC=CC=C4C(C)C

> <PUBCHEM_CACTVS_TPSA>
68.5

> <PUBCHEM_MONOISOTOPIC_WEIGHT>
384.206245

> <PUBCHEM_TOTAL_CHARGE>
0

> <PUBCHEM_HEAVY_ATOM_COUNT>
29

> <PUBCHEM_ATOM_DEF_STEREO_COUNT>
0

> <PUBCHEM_ATOM_UDEF_STEREO_COUNT>
0

> <PUBCHEM_BOND_DEF_STEREO_COUNT>
0

> <PUBCHEM_BOND_UDEF_STEREO_COUNT>
0

> <PUBCHEM_ISOTOPIC_ATOM_COUNT>
0

> <PUBCHEM_COMPONENT_COUNT>
1

> <PUBCHEM_CACTVS_TAUTO_COUNT>
-1

> <PUBCHEM_COORDINATE_TYPE>
1
5
255

> <PUBCHEM_BONDANNOTATIONS>
12  17  8
14  20  8
15  19  8
17  20  8
18  22  8
18  23  8
19  21  8
2  13  8
2  15  8
22  25  8
23  26  8
24  25  8
24  26  8
28  29  8
3  13  8
3  21  8
4  28  8
4  5  8
5  6  8
6  29  8
8  12  8
8  9  8
9  14  8

$$$$
24821094
  -OEChem-02182015172D

 57 61  0     1  0  0  0  0  0999 V2000
    7.9244   -3.2213    0.0000 O   0  0  0  0  0  0  0  0  0  0  0  0
    5.9209    3.7594    0.0000 O   0  0  0  0  0  0  0  0  0  0  0  0
    6.2781   -3.7594    0.0000 N   0  0  0  0  0  0  0  0  0  0  0  0
    4.6783   -1.6521    0.0000 N   0  0  0  0  0  0  0  0  0  0  0  0
    5.2619   -0.8474    0.0000 N   0  0  0  0  0  0  0  0  0  0  0  0
    2.8660   -1.8474    0.0000 N   0  0  0  0  0  0  0  0  0  0  0  0
    2.0000   -0.3474    0.0000 N   0  0  0  0  0  0  0  0  0  0  0  0
    2.8660    1.1526    0.0000 N   0  0  0  0  0  0  0  0  0  0  0  0
    4.9889   -2.6027    0.0000 C   0  0  2  0  0  0  0  0  0  0  0  0
    4.3211   -3.3470    0.0000 C   0  0  0  0  0  0  0  0  0  0  0  0
    5.9674   -2.8089    0.0000 C   0  0  0  0  0  0  0  0  0  0  0  0
    4.6318   -4.2975    0.0000 C   0  0  0  0  0  0  0  0  0  0  0  0
    5.6103   -4.5037    0.0000 C   0  0  0  0  0  0  0  0  0  0  0  0
    3.7320   -1.3474    0.0000 C   0  0  0  0  0  0  0  0  0  0  0  0
    3.7320   -0.3474    0.0000 C   0  0  0  0  0  0  0  0  0  0  0  0
    7.2566   -3.9656    0.0000 C   0  0  0  0  0  0  0  0  0  0  0  0
    4.6783   -0.0427    0.0000 C   0  0  0  0  0  0  0  0  0  0  0  0
    2.8660    0.1526    0.0000 C   0  0  0  0  0  0  0  0  0  0  0  0
    4.9889    0.9078    0.0000 C   0  0  0  0  0  0  0  0  0  0  0  0
    7.5673   -4.9161    0.0000 C   0  0  0  0  0  0  0  0  0  0  0  0
    2.0000   -1.3474    0.0000 C   0  0  0  0  0  0  0  0  0  0  0  0
    4.3211    1.6521    0.0000 C   0  0  0  0  0  0  0  0  0  0  0  0
    5.9674    1.1141    0.0000 C   0  0  0  0  0  0  0  0  0  0  0  0
    8.5458   -5.1224    0.0000 C   0  0  0  0  0  0  0  0  0  0  0  0
    4.6318    2.6027    0.0000 C   0  0  0  0  0  0  0  0  0  0  0  0
    6.2781    2.0646    0.0000 C   0  0  0  0  0  0  0  0  0  0  0  0
    5.6103    2.8089    0.0000 C   0  0  0  0  0  0  0  0  0  0  0  0
    6.8994    3.9656    0.0000 C   0  0  0  0  0  0  0  0  0  0  0  0
    7.5673    3.2213    0.0000 C   0  0  0  0  0  0  0  0  0  0  0  0
    7.2101    4.9161    0.0000 C   0  0  0  0  0  0  0  0  0  0  0  0
    8.5458    3.4275    0.0000 C   0  0  0  0  0  0  0  0  0  0  0  0
    8.1886    5.1224    0.0000 C   0  0  0  0  0  0  0  0  0  0  0  0
    8.8564    4.3781    0.0000 C   0  0  0  0  0  0  0  0  0  0  0  0
    5.4030   -2.1412    0.0000 H   0  0  0  0  0  0  0  0  0  0  0  0
    3.9385   -2.8591    0.0000 H   0  0  0  0  0  0  0  0  0  0  0  0
    3.7742   -3.6390    0.0000 H   0  0  0  0  0  0  0  0  0  0  0  0
    6.5812   -2.7215    0.0000 H   0  0  0  0  0  0  0  0  0  0  0  0
    5.9880   -2.1892    0.0000 H   0  0  0  0  0  0  0  0  0  0  0  0
    4.0179   -4.3848    0.0000 H   0  0  0  0  0  0  0  0  0  0  0  0
    4.6112   -4.9171    0.0000 H   0  0  0  0  0  0  0  0  0  0  0  0
    5.3790   -5.0790    0.0000 H   0  0  0  0  0  0  0  0  0  0  0  0
    6.1366   -4.8313    0.0000 H   0  0  0  0  0  0  0  0  0  0  0  0
    7.1532   -5.3776    0.0000 H   0  0  0  0  0  0  0  0  0  0  0  0
    1.4631   -1.6574    0.0000 H   0  0  0  0  0  0  0  0  0  0  0  0
    3.7144    1.5243    0.0000 H   0  0  0  0  0  0  0  0  0  0  0  0
    6.3815    0.6526    0.0000 H   0  0  0  0  0  0  0  0  0  0  0  0
    2.3291    1.4626    0.0000 H   0  0  0  0  0  0  0  0  0  0  0  0
    3.4030    1.4626    0.0000 H   0  0  0  0  0  0  0  0  0  0  0  0
    8.7384   -5.7117    0.0000 H   0  0  0  0  0  0  0  0  0  0  0  0
    8.9598   -4.6609    0.0000 H   0  0  0  0  0  0  0  0  0  0  0  0
    4.2177    3.0641    0.0000 H   0  0  0  0  0  0  0  0  0  0  0  0
    6.8848    2.1924    0.0000 H   0  0  0  0  0  0  0  0  0  0  0  0
    7.3747    2.6320    0.0000 H   0  0  0  0  0  0  0  0  0  0  0  0
    6.7960    5.3776    0.0000 H   0  0  0  0  0  0  0  0  0  0  0  0
    8.9598    2.9661    0.0000 H   0  0  0  0  0  0  0  0  0  0  0  0
    8.3812    5.7117    0.0000 H   0  0  0  0  0  0  0  0  0  0  0  0
    9.4631    4.5059    0.0000 H   0  0  0  0  0  0  0  0  0  0  0  0
  1 16  2  0  0  0  0
  2 27  1  0  0  0  0
  2 28  1  0  0  0  0
  3 11  1  0  0  0  0
  3 13  1  0  0  0  0
  3 16  1  0  0  0  0
  4  5  1  0  0  0  0
  9  4  1  1  0  0  0
  4 14  1  0  0  0  0
  5 17  2  0  0  0  0
  6 14  2  0  0  0  0
  6 21  1  0  0  0  0
  7 18  1  0  0  0  0
  7 21  2  0  0  0  0
  8 18  1  0  0  0  0
  8 47  1  0  0  0  0
  8 48  1  0  0  0  0
  9 10  1  0  0  0  0
  9 11  1  0  0  0  0
  9 34  1  0  0  0  0
 10 12  1  0  0  0  0
 10 35  1  0  0  0  0
 10 36  1  0  0  0  0
 11 37  1  0  0  0  0
 11 38  1  0  0  0  0
 12 13  1  0  0  0  0
 12 39  1  0  0  0  0
 12 40  1  0  0  0  0
 13 41  1  0  0  0  0
 13 42  1  0  0  0  0
 14 15  1  0  0  0  0
 15 17  1  0  0  0  0
 15 18  2  0  0  0  0
 16 20  1  0  0  0  0
 17 19  1  0  0  0  0
 19 22  2  0  0  0  0
 19 23  1  0  0  0  0
 20 24  2  0  0  0  0
 20 43  1  0  0  0  0
 21 44  1  0  0  0  0
 22 25  1  0  0  0  0
 22 45  1  0  0  0  0
 23 26  2  0  0  0  0
 23 46  1  0  0  0  0
 24 49  1  0  0  0  0
 24 50  1  0  0  0  0
 25 27  2  0  0  0  0
 25 51  1  0  0  0  0
 26 27  1  0  0  0  0
 26 52  1  0  0  0  0
 28 29  2  0  0  0  0
 28 30  1  0  0  0  0
 29 31  1  0  0  0  0
 29 53  1  0  0  0  0
 30 32  2  0  0  0  0
 30 54  1  0  0  0  0
 31 33  2  0  0  0  0
 31 55  1  0  0  0  0
 32 33  1  0  0  0  0
 32 56  1  0  0  0  0
 33 57  1  0  0  0  0
M  END
> <PUBCHEM_COMPOUND_CID>
24821094

> <PUBCHEM_COMPOUND_CANONICALIZED>
1

> <PUBCHEM_CACTVS_COMPLEXITY>
678

> <PUBCHEM_CACTVS_HBOND_ACCEPTOR>
6

> <PUBCHEM_CACTVS_HBOND_DONOR>
1

> <PUBCHEM_CACTVS_ROTATABLE_BOND>
5

> <PUBCHEM_CACTVS_SUBSKEYS>
AAADceB7sAAAAAAAAAAAAAAAAAAAAWAAAAA8eIEAAAAAAFgB/AAAHgAYAAAADCzBnwQ1tt9IFACqAydzdACSjCsxoKAd2CAuTNiMbqLE+duWvCjszhPI6KeQ0OEOIAAAAAAAAABAAAAAAAAAAAAAAAAAAA==

> <PUBCHEM_IUPAC_OPENEYE_NAME>
1-[(3R)-3-[4-amino-3-(4-phenoxyphenyl)pyrazolo[3,4-d]pyrimidin-1-yl]-1-piperidyl]prop-2-en-1-one

> <PUBCHEM_IUPAC_CAS_NAME>
1-[(3R)-3-[4-amino-3-(4-phenoxyphenyl)-1-pyrazolo[3,4-d]pyrimidinyl]-1-piperidinyl]-2-propen-1-one

> <PUBCHEM_IUPAC_NAME_MARKUP>
1-[(3<I>R</I>)-3-[4-amino-3-(4-phenoxyphenyl)pyrazolo[3,4-d]pyrimidin-1-yl]piperidin-1-yl]prop-2-en-1-one

> <PUBCHEM_IUPAC_NAME>
1-[(3R)-3-[4-amino-3-(4-phenoxyphenyl)pyrazolo[3,4-d]pyrimidin-1-yl]piperidin-1-yl]prop-2-en-1-one

> <PUBCHEM_IUPAC_SYSTEMATIC_NAME>
1-[(3R)-3-[4-azanyl-3-(4-phenoxyphenyl)pyrazolo[3,4-d]pyrimidin-1-yl]piperidin-1-yl]prop-2-en-1-one

> <PUBCHEM_IUPAC_TRADITIONAL_NAME>
1-[(3R)-3-[4-amino-3-(4-phenoxyphenyl)pyrazolo[3,4-d]pyrimidin-1-yl]piperidino]prop-2-en-1-one

> <PUBCHEM_IUPAC_INCHI>
InChI=1S/C25H24N6O2/c1-2-21(32)30-14-6-7-18(15-30)31-25-22(24(26)27-16-28-25)23(29-31)17-10-12-20(13-11-17)33-19-8-4-3-5-9-19/h2-5,8-13,16,18H,1,6-7,14-15H2,(H2,26,27,28)/t18-/m1/s1

> <PUBCHEM_IUPAC_INCHIKEY>
XYFPWWZEPKGCCK-GOSISDBHSA-N

> <PUBCHEM_XLOGP3_AA>
3.6

> <PUBCHEM_EXACT_MASS>
440.196074

> <PUBCHEM_MOLECULAR_FORMULA>
C25H24N6O2

> <PUBCHEM_MOLECULAR_WEIGHT>
440.5

> <PUBCHEM_OPENEYE_CAN_SMILES>
C=CC(=O)N1CCCC(C1)N2C3=NC=NC(=C3C(=N2)C4=CC=C(C=C4)OC5=CC=CC=C5)N

> <PUBCHEM_OPENEYE_ISO_SMILES>
C=CC(=O)N1CCC[C@H](C1)N2C3=NC=NC(=C3C(=N2)C4=CC=C(C=C4)OC5=CC=CC=C5)N

> <PUBCHEM_CACTVS_TPSA>
99.2

> <PUBCHEM_MONOISOTOPIC_WEIGHT>
440.196074

> <PUBCHEM_TOTAL_CHARGE>
0

> <PUBCHEM_HEAVY_ATOM_COUNT>
33

> <PUBCHEM_ATOM_DEF_STEREO_COUNT>
1

> <PUBCHEM_ATOM_UDEF_STEREO_COUNT>
0

> <PUBCHEM_BOND_DEF_STEREO_COUNT>
0

> <PUBCHEM_BOND_UDEF_STEREO_COUNT>
0

> <PUBCHEM_ISOTOPIC_ATOM_COUNT>
0

> <PUBCHEM_COMPONENT_COUNT>
1

> <PUBCHEM_CACTVS_TAUTO_COUNT>
-1

> <PUBCHEM_COORDINATE_TYPE>
1
5
255

> <PUBCHEM_BONDANNOTATIONS>
14  15  8
15  17  8
15  18  8
19  22  8
19  23  8
22  25  8
23  26  8
25  27  8
26  27  8
28  29  8
28  30  8
29  31  8
30  32  8
31  33  8
32  33  8
4  14  8
4  5  8
9  4  5
5  17  8
6  14  8
6  21  8
7  18  8
7  21  8

$$$$
11719003
  -OEChem-02182015172D

 51 53  0     1  0  0  0  0  0999 V2000
    6.1027   -1.4206    0.0000 Cl  0  0  0  0  0  0  0  0  0  0  0  0
    2.0000    4.0407    0.0000 Cl  0  0  0  0  0  0  0  0  0  0  0  0
    4.9836    4.3543    0.0000 O   0  0  0  0  0  0  0  0  0  0  0  0
    7.1537    2.8408    0.0000 O   0  0  0  0  0  0  0  0  0  0  0  0
    5.7524    1.8227    0.0000 N   0  0  0  0  0  0  0  0  0  0  0  0
    8.3347    1.1182    0.0000 N   0  0  0  0  0  0  0  0  0  0  0  0
    9.5668   -3.4206    0.0000 N   0  0  0  0  0  0  0  0  0  0  0  0
    7.8347   -3.4206    0.0000 N   0  0  0  0  0  0  0  0  0  0  0  0
    5.1646    2.6317    0.0000 C   0  0  1  0  0  0  0  0  0  0  0  0
    4.1701    2.5272    0.0000 C   0  0  0  0  0  0  0  0  0  0  0  0
    7.8347   -0.4207    0.0000 C   0  0  0  0  0  0  0  0  0  0  0  0
    7.3347    1.1182    0.0000 C   0  0  0  0  0  0  0  0  0  0  0  0
    5.5714    3.5452    0.0000 C   0  0  0  0  0  0  0  0  0  0  0  0
    7.8347   -1.4206    0.0000 C   0  0  0  0  0  0  0  0  0  0  0  0
    6.7469    1.9272    0.0000 C   0  0  0  0  0  0  0  0  0  0  0  0
    7.0257    0.1671    0.0000 C   0  0  0  0  0  0  0  0  0  0  0  0
    9.5668   -4.4206    0.0000 C   0  0  0  0  0  0  0  0  0  0  0  0
    8.6437    0.1671    0.0000 C   0  0  0  0  0  0  0  0  0  0  0  0
    8.7007   -2.9207    0.0000 C   0  0  0  0  0  0  0  0  0  0  0  0
    8.7007   -1.9206    0.0000 C   0  0  0  0  0  0  0  0  0  0  0  0
    3.5823    3.3362    0.0000 C   0  0  0  0  0  0  0  0  0  0  0  0
    3.7634    1.6136    0.0000 C   0  0  0  0  0  0  0  0  0  0  0  0
    6.9687   -1.9206    0.0000 C   0  0  0  0  0  0  0  0  0  0  0  0
   10.4328   -4.9206    0.0000 C   0  0  0  0  0  0  0  0  0  0  0  0
    8.7007   -4.9206    0.0000 C   0  0  0  0  0  0  0  0  0  0  0  0
    2.5878    3.2316    0.0000 C   0  0  0  0  0  0  0  0  0  0  0  0
    2.7688    1.5091    0.0000 C   0  0  0  0  0  0  0  0  0  0  0  0
    6.9687   -2.9207    0.0000 C   0  0  0  0  0  0  0  0  0  0  0  0
    2.1810    2.3181    0.0000 C   0  0  0  0  0  0  0  0  0  0  0  0
    4.9124    2.0653    0.0000 H   0  0  0  0  0  0  0  0  0  0  0  0
    5.5002    1.2563    0.0000 H   0  0  0  0  0  0  0  0  0  0  0  0
    6.0854    3.1985    0.0000 H   0  0  0  0  0  0  0  0  0  0  0  0
    6.0020    3.9912    0.0000 H   0  0  0  0  0  0  0  0  0  0  0  0
    9.0298   -4.1106    0.0000 H   0  0  0  0  0  0  0  0  0  0  0  0
    6.4360   -0.0245    0.0000 H   0  0  0  0  0  0  0  0  0  0  0  0
    9.2334   -0.0245    0.0000 H   0  0  0  0  0  0  0  0  0  0  0  0
    8.6991    1.6198    0.0000 H   0  0  0  0  0  0  0  0  0  0  0  0
    9.2377   -1.6106    0.0000 H   0  0  0  0  0  0  0  0  0  0  0  0
   10.1037   -3.1106    0.0000 H   0  0  0  0  0  0  0  0  0  0  0  0
    3.8345    3.9026    0.0000 H   0  0  0  0  0  0  0  0  0  0  0  0
    4.1278    1.1120    0.0000 H   0  0  0  0  0  0  0  0  0  0  0  0
   10.1228   -5.4576    0.0000 H   0  0  0  0  0  0  0  0  0  0  0  0
   10.9697   -5.2306    0.0000 H   0  0  0  0  0  0  0  0  0  0  0  0
   10.7428   -4.3837    0.0000 H   0  0  0  0  0  0  0  0  0  0  0  0
    8.3907   -4.3837    0.0000 H   0  0  0  0  0  0  0  0  0  0  0  0
    8.1638   -5.2306    0.0000 H   0  0  0  0  0  0  0  0  0  0  0  0
    9.0107   -5.4576    0.0000 H   0  0  0  0  0  0  0  0  0  0  0  0
    2.5167    0.9427    0.0000 H   0  0  0  0  0  0  0  0  0  0  0  0
    6.4318   -3.2306    0.0000 H   0  0  0  0  0  0  0  0  0  0  0  0
    1.5644    2.2533    0.0000 H   0  0  0  0  0  0  0  0  0  0  0  0
    5.2357    4.9206    0.0000 H   0  0  0  0  0  0  0  0  0  0  0  0
  1 23  1  0  0  0  0
  2 26  1  0  0  0  0
  3 13  1  0  0  0  0
  3 51  1  0  0  0  0
  4 15  2  0  0  0  0
  9  5  1  1  0  0  0
  5 15  1  0  0  0  0
  5 31  1  0  0  0  0
  6 12  1  0  0  0  0
  6 18  1  0  0  0  0
  6 37  1  0  0  0  0
  7 17  1  0  0  0  0
  7 19  1  0  0  0  0
  7 39  1  0  0  0  0
  8 19  2  0  0  0  0
  8 28  1  0  0  0  0
  9 10  1  0  0  0  0
  9 13  1  0  0  0  0
  9 30  1  0  0  0  0
 10 21  2  0  0  0  0
 10 22  1  0  0  0  0
 11 14  1  0  0  0  0
 11 16  1  0  0  0  0
 11 18  2  0  0  0  0
 12 15  1  0  0  0  0
 12 16  2  0  0  0  0
 13 32  1  0  0  0  0
 13 33  1  0  0  0  0
 14 20  2  0  0  0  0
 14 23  1  0  0  0  0
 16 35  1  0  0  0  0
 17 24  1  0  0  0  0
 17 25  1  0  0  0  0
 17 34  1  0  0  0  0
 18 36  1  0  0  0  0
 19 20  1  0  0  0  0
 20 38  1  0  0  0  0
 21 26  1  0  0  0  0
 21 40  1  0  0  0  0
 22 27  2  0  0  0  0
 22 41  1  0  0  0  0
 23 28  2  0  0  0  0
 24 42  1  0  0  0  0
 24 43  1  0  0  0  0
 24 44  1  0  0  0  0
 25 45  1  0  0  0  0
 25 46  1  0  0  0  0
 25 47  1  0  0  0  0
 26 29  2  0  0  0  0
 27 29  1  0  0  0  0
 27 48  1  0  0  0  0
 28 49  1  0  0  0  0
 29 50  1  0  0  0  0
M  END
> <PUBCHEM_COMPOUND_CID>
11719003

> <PUBCHEM_COMPOUND_CANONICALIZED>
1

> <PUBCHEM_CACTVS_COMPLEXITY>
539

> <PUBCHEM_CACTVS_HBOND_ACCEPTOR>
4

> <PUBCHEM_CACTVS_HBOND_DONOR>
4

> <PUBCHEM_CACTVS_ROTATABLE_BOND>
7

> <PUBCHEM_CACTVS_SUBSKEYS>
AAADceB7sAAGAAAAAAAAAAAAAAAAAWAAAAA8QAAAAAAAAAAB8AAAHgIQCAAADCrhniY/sJLJkgCoAzd3dACCgCk3ByAJ2aG4ZtiKcPLBn7HUYQhs1gPYyaeYyaCOgAAAIAAAAAAAAABAAAAAAAAAAAAAAA==

> <PUBCHEM_IUPAC_OPENEYE_NAME>
4-[5-chloro-2-(isopropylamino)-4-pyridyl]-N-[(1S)-1-(3-chlorophenyl)-2-hydroxy-ethyl]-1H-pyrrole-2-carboxamide

> <PUBCHEM_IUPAC_CAS_NAME>
N-[(1S)-1-(3-chlorophenyl)-2-hydroxyethyl]-4-[5-chloro-2-(propan-2-ylamino)-4-pyridinyl]-1H-pyrrole-2-carboxamide

> <PUBCHEM_IUPAC_NAME_MARKUP>
<I>N</I>-[(1<I>S</I>)-1-(3-chlorophenyl)-2-hydroxyethyl]-4-[5-chloro-2-(propan-2-ylamino)pyridin-4-yl]-1<I>H</I>-pyrrole-2-carboxamide

> <PUBCHEM_IUPAC_NAME>
N-[(1S)-1-(3-chlorophenyl)-2-hydroxyethyl]-4-[5-chloro-2-(propan-2-ylamino)pyridin-4-yl]-1H-pyrrole-2-carboxamide

> <PUBCHEM_IUPAC_SYSTEMATIC_NAME>
4-[5-chloranyl-2-(propan-2-ylamino)pyridin-4-yl]-N-[(1S)-1-(3-chlorophenyl)-2-oxidanyl-ethyl]-1H-pyrrole-2-carboxamide

> <PUBCHEM_IUPAC_TRADITIONAL_NAME>
4-[5-chloro-2-(isopropylamino)-4-pyridyl]-N-[(1S)-1-(3-chlorophenyl)-2-hydroxy-ethyl]-1H-pyrrole-2-carboxamide

> <PUBCHEM_IUPAC_INCHI>
InChI=1S/C21H22Cl2N4O2/c1-12(2)26-20-8-16(17(23)10-25-20)14-7-18(24-9-14)21(29)27-19(11-28)13-4-3-5-15(22)6-13/h3-10,12,19,24,28H,11H2,1-2H3,(H,25,26)(H,27,29)/t19-/m1/s1

> <PUBCHEM_IUPAC_INCHIKEY>
KSERXGMCDHOLSS-LJQANCHMSA-N

> <PUBCHEM_XLOGP3_AA>
4.1

> <PUBCHEM_EXACT_MASS>
432.111981

> <PUBCHEM_MOLECULAR_FORMULA>
C21H22Cl2N4O2

> <PUBCHEM_MOLECULAR_WEIGHT>
433.3

> <PUBCHEM_OPENEYE_CAN_SMILES>
CC(C)NC1=NC=C(C(=C1)C2=CNC(=C2)C(=O)NC(CO)C3=CC(=CC=C3)Cl)Cl

> <PUBCHEM_OPENEYE_ISO_SMILES>
CC(C)NC1=NC=C(C(=C1)C2=CNC(=C2)C(=O)N[C@H](CO)C3=CC(=CC=C3)Cl)Cl

> <PUBCHEM_CACTVS_TPSA>
90

> <PUBCHEM_MONOISOTOPIC_WEIGHT>
432.111981

> <PUBCHEM_TOTAL_CHARGE>
0

> <PUBCHEM_HEAVY_ATOM_COUNT>
29

> <PUBCHEM_ATOM_DEF_STEREO_COUNT>
1

> <PUBCHEM_ATOM_UDEF_STEREO_COUNT>
0

> <PUBCHEM_BOND_DEF_STEREO_COUNT>
0

> <PUBCHEM_BOND_UDEF_STEREO_COUNT>
0

> <PUBCHEM_ISOTOPIC_ATOM_COUNT>
0

> <PUBCHEM_COMPONENT_COUNT>
1

> <PUBCHEM_CACTVS_TAUTO_COUNT>
-1

> <PUBCHEM_COORDINATE_TYPE>
1
5
255

> <PUBCHEM_BONDANNOTATIONS>
10  21  8
10  22  8
11  16  8
11  18  8
12  16  8
14  20  8
14  23  8
19  20  8
21  26  8
22  27  8
23  28  8
26  29  8
27  29  8
9  5  5
6  12  8
6  18  8
8  19  8
8  28  8

$$$$
78209992
  -OEChem-02182015172D

 55 58  0     1  0  0  0  0  0999 V2000
   11.5078   -3.5272    0.0000 Cl  0  0  0  0  0  0  0  0  0  0  0  0
    9.7875   -2.5072    0.0000 F   0  0  0  0  0  0  0  0  0  0  0  0
    6.3301    0.5272    0.0000 O   0  0  0  0  0  0  0  0  0  0  0  0
    5.4641    2.0272    0.0000 O   0  0  0  0  0  0  0  0  0  0  0  0
    6.3301    2.5272    0.0000 O   0  0  0  0  0  0  0  0  0  0  0  0
    4.5981    0.5272    0.0000 N   0  0  0  0  0  0  0  0  0  0  0  0
    2.8660   -0.4728    0.0000 N   0  0  3  0  0  0  0  0  0  0  0  0
    9.8106   -0.5074    0.0000 N   0  0  0  0  0  0  0  0  0  0  0  0
    9.8222    2.5619    0.0000 N   0  0  0  0  0  0  0  0  0  0  0  0
   10.7282    1.0064    0.0000 N   0  0  0  0  0  0  0  0  0  0  0  0
    3.7320    1.0272    0.0000 C   0  0  1  0  0  0  0  0  0  0  0  0
    2.8660    0.5272    0.0000 C   0  0  0  0  0  0  0  0  0  0  0  0
    4.5981   -0.4728    0.0000 C   0  0  0  0  0  0  0  0  0  0  0  0
    3.7320   -0.9728    0.0000 C   0  0  0  0  0  0  0  0  0  0  0  0
    3.7320    2.0272    0.0000 C   0  0  0  0  0  0  0  0  0  0  0  0
    2.0000   -0.9728    0.0000 C   0  0  0  0  0  0  0  0  0  0  0  0
    5.4641    1.0272    0.0000 C   0  0  0  0  0  0  0  0  0  0  0  0
    7.1962    1.0272    0.0000 C   0  0  0  0  0  0  0  0  0  0  0  0
    8.0622    0.5272    0.0000 C   0  0  0  0  0  0  0  0  0  0  0  0
    7.1962    2.0272    0.0000 C   0  0  0  0  0  0  0  0  0  0  0  0
    8.9282    1.0272    0.0000 C   0  0  0  0  0  0  0  0  0  0  0  0
    8.9282    2.0272    0.0000 C   0  0  0  0  0  0  0  0  0  0  0  0
    8.0622    2.5272    0.0000 C   0  0  0  0  0  0  0  0  0  0  0  0
    9.8222    0.4926    0.0000 C   0  0  0  0  0  0  0  0  0  0  0  0
   10.6708   -1.0174    0.0000 C   0  0  0  0  0  0  0  0  0  0  0  0
   10.7282    2.0480    0.0000 C   0  0  0  0  0  0  0  0  0  0  0  0
    6.3301    3.5272    0.0000 C   0  0  0  0  0  0  0  0  0  0  0  0
   10.6592   -2.0173    0.0000 C   0  0  0  0  0  0  0  0  0  0  0  0
   11.5425   -0.5274    0.0000 C   0  0  0  0  0  0  0  0  0  0  0  0
   11.5194   -2.5273    0.0000 C   0  0  0  0  0  0  0  0  0  0  0  0
   12.4027   -1.0374    0.0000 C   0  0  0  0  0  0  0  0  0  0  0  0
   12.3911   -2.0373    0.0000 C   0  0  0  0  0  0  0  0  0  0  0  0
    4.2690    1.3372    0.0000 H   0  0  0  0  0  0  0  0  0  0  0  0
    2.6540    1.1098    0.0000 H   0  0  0  0  0  0  0  0  0  0  0  0
    2.2554    0.4195    0.0000 H   0  0  0  0  0  0  0  0  0  0  0  0
    4.8101   -1.0554    0.0000 H   0  0  0  0  0  0  0  0  0  0  0  0
    5.2087   -0.3651    0.0000 H   0  0  0  0  0  0  0  0  0  0  0  0
    3.3335   -1.4477    0.0000 H   0  0  0  0  0  0  0  0  0  0  0  0
    4.1306   -1.4477    0.0000 H   0  0  0  0  0  0  0  0  0  0  0  0
    4.3520    2.0272    0.0000 H   0  0  0  0  0  0  0  0  0  0  0  0
    3.7320    2.6472    0.0000 H   0  0  0  0  0  0  0  0  0  0  0  0
    3.1120    2.0272    0.0000 H   0  0  0  0  0  0  0  0  0  0  0  0
    1.6900   -0.4359    0.0000 H   0  0  0  0  0  0  0  0  0  0  0  0
    1.4631   -1.2828    0.0000 H   0  0  0  0  0  0  0  0  0  0  0  0
    2.3100   -1.5097    0.0000 H   0  0  0  0  0  0  0  0  0  0  0  0
    8.0622   -0.0928    0.0000 H   0  0  0  0  0  0  0  0  0  0  0  0
    8.0622    3.1472    0.0000 H   0  0  0  0  0  0  0  0  0  0  0  0
    9.2701   -0.8112    0.0000 H   0  0  0  0  0  0  0  0  0  0  0  0
   11.2639    2.3601    0.0000 H   0  0  0  0  0  0  0  0  0  0  0  0
    6.9501    3.5272    0.0000 H   0  0  0  0  0  0  0  0  0  0  0  0
    6.3301    4.1472    0.0000 H   0  0  0  0  0  0  0  0  0  0  0  0
    5.7101    3.5272    0.0000 H   0  0  0  0  0  0  0  0  0  0  0  0
   11.5497    0.0925    0.0000 H   0  0  0  0  0  0  0  0  0  0  0  0
   12.9432   -0.7336    0.0000 H   0  0  0  0  0  0  0  0  0  0  0  0
   12.9245   -2.3535    0.0000 H   0  0  0  0  0  0  0  0  0  0  0  0
  1 30  1  0  0  0  0
  2 28  1  0  0  0  0
  3 17  1  0  0  0  0
  3 18  1  0  0  0  0
  4 17  2  0  0  0  0
  5 20  1  0  0  0  0
  5 27  1  0  0  0  0
  6 11  1  0  0  0  0
  6 13  1  0  0  0  0
  6 17  1  0  0  0  0
  7 12  1  0  0  0  0
  7 14  1  0  0  0  0
  7 16  1  0  0  0  0
  8 24  1  0  0  0  0
  8 25  1  0  0  0  0
  8 48  1  0  0  0  0
  9 22  1  0  0  0  0
  9 26  2  0  0  0  0
 10 24  2  0  0  0  0
 10 26  1  0  0  0  0
 11 12  1  0  0  0  0
 11 15  1  1  0  0  0
 11 33  1  0  0  0  0
 12 34  1  0  0  0  0
 12 35  1  0  0  0  0
 13 14  1  0  0  0  0
 13 36  1  0  0  0  0
 13 37  1  0  0  0  0
 14 38  1  0  0  0  0
 14 39  1  0  0  0  0
 15 40  1  0  0  0  0
 15 41  1  0  0  0  0
 15 42  1  0  0  0  0
 16 43  1  0  0  0  0
 16 44  1  0  0  0  0
 16 45  1  0  0  0  0
 18 19  1  0  0  0  0
 18 20  2  0  0  0  0
 19 21  2  0  0  0  0
 19 46  1  0  0  0  0
 20 23  1  0  0  0  0
 21 22  1  0  0  0  0
 21 24  1  0  0  0  0
 22 23  2  0  0  0  0
 23 47  1  0  0  0  0
 25 28  2  0  0  0  0
 25 29  1  0  0  0  0
 26 49  1  0  0  0  0
 27 50  1  0  0  0  0
 27 51  1  0  0  0  0
 27 52  1  0  0  0  0
 28 30  1  0  0  0  0
 29 31  2  0  0  0  0
 29 53  1  0  0  0  0
 30 32  2  0  0  0  0
 31 32  1  0  0  0  0
 31 54  1  0  0  0  0
 32 55  1  0  0  0  0
M  END
> <PUBCHEM_COMPOUND_CID>
78209992

> <PUBCHEM_COMPOUND_CANONICALIZED>
1

> <PUBCHEM_CACTVS_COMPLEXITY>
649

> <PUBCHEM_CACTVS_HBOND_ACCEPTOR>
8

> <PUBCHEM_CACTVS_HBOND_DONOR>
1

> <PUBCHEM_CACTVS_ROTATABLE_BOND>
5

> <PUBCHEM_CACTVS_SUBSKEYS>
AAADceB7sQAEAAAAAAAAAAAAAAAAAAAAAAA8eIEAAAAAAACx9AAAHwIQAAAADC7Bni43/vfIFACoAyZjfACCiCkxJ6AJ2CA+7piNbuLF+9ucNipu1hvK6Cew0BMOIEABAgICQABAgAIEBASAAAAAAAAAAA==

> <PUBCHEM_IUPAC_OPENEYE_NAME>
[4-(3-chloro-2-fluoro-anilino)-7-methoxy-quinazolin-6-yl] (2R)-2,4-dimethylpiperazine-1-carboxylate

> <PUBCHEM_IUPAC_CAS_NAME>
(2R)-2,4-dimethyl-1-piperazinecarboxylic acid [4-(3-chloro-2-fluoroanilino)-7-methoxy-6-quinazolinyl] ester

> <PUBCHEM_IUPAC_NAME_MARKUP>
[4-(3-chloro-2-fluoroanilino)-7-methoxyquinazolin-6-yl] (2<I>R</I>)-2,4-dimethylpiperazine-1-carboxylate

> <PUBCHEM_IUPAC_NAME>
[4-(3-chloro-2-fluoroanilino)-7-methoxyquinazolin-6-yl] (2R)-2,4-dimethylpiperazine-1-carboxylate

> <PUBCHEM_IUPAC_SYSTEMATIC_NAME>
[4-[(3-chloranyl-2-fluoranyl-phenyl)amino]-7-methoxy-quinazolin-6-yl] (2R)-2,4-dimethylpiperazine-1-carboxylate

> <PUBCHEM_IUPAC_TRADITIONAL_NAME>
(2R)-2,4-dimethylpiperazine-1-carboxylic acid [4-(3-chloro-2-fluoro-anilino)-7-methoxy-quinazolin-6-yl] ester

> <PUBCHEM_IUPAC_INCHI>
InChI=1S/C22H23ClFN5O3/c1-13-11-28(2)7-8-29(13)22(30)32-19-9-14-17(10-18(19)31-3)25-12-26-21(14)27-16-6-4-5-15(23)20(16)24/h4-6,9-10,12-13H,7-8,11H2,1-3H3,(H,25,26,27)/t13-/m1/s1

> <PUBCHEM_IUPAC_INCHIKEY>
MXDSJQHFFDGFDK-CYBMUJFWSA-N

> <PUBCHEM_XLOGP3_AA>
4.1

> <PUBCHEM_EXACT_MASS>
459.147345

> <PUBCHEM_MOLECULAR_FORMULA>
C22H23ClFN5O3

> <PUBCHEM_MOLECULAR_WEIGHT>
459.9

> <PUBCHEM_OPENEYE_CAN_SMILES>
CC1CN(CCN1C(=O)OC2=C(C=C3C(=C2)C(=NC=N3)NC4=C(C(=CC=C4)Cl)F)OC)C

> <PUBCHEM_OPENEYE_ISO_SMILES>
C[C@@H]1CN(CCN1C(=O)OC2=C(C=C3C(=C2)C(=NC=N3)NC4=C(C(=CC=C4)Cl)F)OC)C

> <PUBCHEM_CACTVS_TPSA>
79.8

> <PUBCHEM_MONOISOTOPIC_WEIGHT>
459.147345

> <PUBCHEM_TOTAL_CHARGE>
0

> <PUBCHEM_HEAVY_ATOM_COUNT>
32

> <PUBCHEM_ATOM_DEF_STEREO_COUNT>
1

> <PUBCHEM_ATOM_UDEF_STEREO_COUNT>
0

> <PUBCHEM_BOND_DEF_STEREO_COUNT>
0

> <PUBCHEM_BOND_UDEF_STEREO_COUNT>
0

> <PUBCHEM_ISOTOPIC_ATOM_COUNT>
0

> <PUBCHEM_COMPONENT_COUNT>
1

> <PUBCHEM_CACTVS_TAUTO_COUNT>
-1

> <PUBCHEM_COORDINATE_TYPE>
1
5
255

> <PUBCHEM_BONDANNOTATIONS>
10  24  8
10  26  8
11  15  5
18  19  8
18  20  8
19  21  8
20  23  8
21  22  8
21  24  8
22  23  8
25  28  8
25  29  8
28  30  8
29  31  8
30  32  8
31  32  8
9  22  8
9  26  8

$$$$
